%nproc=4
%mem=20000MB
#P b3lyp/STO-3G TD(NStates=6) SCFcyc=500 charge NoSymm

Gaussian template charges

 0 1
C    2.428280    0.001838    0.006083
C    0.915603    0.004430   -0.007524
C    0.197635   -1.202030   -0.005671
C   -1.198860   -1.208798    0.001330
C   -1.907868   -0.003065    0.005385
C   -1.206495    1.204683    0.001466
C    0.192215    1.204974   -0.005849
H    2.834884   -0.701703   -0.730361
H    2.831835    0.994935   -0.218450
H    0.739711   -2.146071   -0.011235
H   -1.734149   -2.155365    0.001091
H   -2.994936   -0.006384    0.008900
H   -1.746013    2.148821    0.001421
H    0.729092    2.151598   -0.011420
H    2.816521   -0.298020    0.988731

 -0.7050  -1.9999  -3.2683    0.10

--link1--
%nproc=4
%mem=20000MB
#P b3lyp/STO-3G TD(NStates=6) SCFcyc=500 charge NoSymm

Gaussian template charges

 0 1
C    2.428280    0.001838    0.006083
C    0.915603    0.004430   -0.007524
C    0.197635   -1.202030   -0.005671
C   -1.198860   -1.208798    0.001330
C   -1.907868   -0.003065    0.005385
C   -1.206495    1.204683    0.001466
C    0.192215    1.204974   -0.005849
H    2.834884   -0.701703   -0.730361
H    2.831835    0.994935   -0.218450
H    0.739711   -2.146071   -0.011235
H   -1.734149   -2.155365    0.001091
H   -2.994936   -0.006384    0.008900
H   -1.746013    2.148821    0.001421
H    0.729092    2.151598   -0.011420
H    2.816521   -0.298020    0.988731

 -0.8654  -2.7557  -3.0080    0.10

--link1--
%nproc=4
%mem=20000MB
#P b3lyp/STO-3G TD(NStates=6) SCFcyc=500 charge NoSymm

Gaussian template charges

 0 1
C    2.428280    0.001838    0.006083
C    0.915603    0.004430   -0.007524
C    0.197635   -1.202030   -0.005671
C   -1.198860   -1.208798    0.001330
C   -1.907868   -0.003065    0.005385
C   -1.206495    1.204683    0.001466
C    0.192215    1.204974   -0.005849
H    2.834884   -0.701703   -0.730361
H    2.831835    0.994935   -0.218450
H    0.739711   -2.146071   -0.011235
H   -1.734149   -2.155365    0.001091
H   -2.994936   -0.006384    0.008900
H   -1.746013    2.148821    0.001421
H    0.729092    2.151598   -0.011420
H    2.816521   -0.298020    0.988731

 -4.2100   1.9198   1.6062    0.10

--link1--
%nproc=4
%mem=20000MB
#P b3lyp/STO-3G TD(NStates=6) SCFcyc=500 charge NoSymm

Gaussian template charges

 0 1
C    2.428280    0.001838    0.006083
C    0.915603    0.004430   -0.007524
C    0.197635   -1.202030   -0.005671
C   -1.198860   -1.208798    0.001330
C   -1.907868   -0.003065    0.005385
C   -1.206495    1.204683    0.001466
C    0.192215    1.204974   -0.005849
H    2.834884   -0.701703   -0.730361
H    2.831835    0.994935   -0.218450
H    0.739711   -2.146071   -0.011235
H   -1.734149   -2.155365    0.001091
H   -2.994936   -0.006384    0.008900
H   -1.746013    2.148821    0.001421
H    0.729092    2.151598   -0.011420
H    2.816521   -0.298020    0.988731

 -4.3831  -1.5497   1.7492    0.10

--link1--
%nproc=4
%mem=20000MB
#P b3lyp/STO-3G TD(NStates=6) SCFcyc=500 charge NoSymm

Gaussian template charges

 0 1
C    2.428280    0.001838    0.006083
C    0.915603    0.004430   -0.007524
C    0.197635   -1.202030   -0.005671
C   -1.198860   -1.208798    0.001330
C   -1.907868   -0.003065    0.005385
C   -1.206495    1.204683    0.001466
C    0.192215    1.204974   -0.005849
H    2.834884   -0.701703   -0.730361
H    2.831835    0.994935   -0.218450
H    0.739711   -2.146071   -0.011235
H   -1.734149   -2.155365    0.001091
H   -2.994936   -0.006384    0.008900
H   -1.746013    2.148821    0.001421
H    0.729092    2.151598   -0.011420
H    2.816521   -0.298020    0.988731

 -5.0171   0.0086  -1.3704    0.10

--link1--
%nproc=4
%mem=20000MB
#P b3lyp/STO-3G TD(NStates=6) SCFcyc=500 charge NoSymm

Gaussian template charges

 0 1
C    2.428280    0.001838    0.006083
C    0.915603    0.004430   -0.007524
C    0.197635   -1.202030   -0.005671
C   -1.198860   -1.208798    0.001330
C   -1.907868   -0.003065    0.005385
C   -1.206495    1.204683    0.001466
C    0.192215    1.204974   -0.005849
H    2.834884   -0.701703   -0.730361
H    2.831835    0.994935   -0.218450
H    0.739711   -2.146071   -0.011235
H   -1.734149   -2.155365    0.001091
H   -2.994936   -0.006384    0.008900
H   -1.746013    2.148821    0.001421
H    0.729092    2.151598   -0.011420
H    2.816521   -0.298020    0.988731

 -1.9239  -0.0256  -3.3945    0.10

--link1--
%nproc=4
%mem=20000MB
#P b3lyp/STO-3G TD(NStates=6) SCFcyc=500 charge NoSymm

Gaussian template charges

 0 1
C    2.428280    0.001838    0.006083
C    0.915603    0.004430   -0.007524
C    0.197635   -1.202030   -0.005671
C   -1.198860   -1.208798    0.001330
C   -1.907868   -0.003065    0.005385
C   -1.206495    1.204683    0.001466
C    0.192215    1.204974   -0.005849
H    2.834884   -0.701703   -0.730361
H    2.831835    0.994935   -0.218450
H    0.739711   -2.146071   -0.011235
H   -1.734149   -2.155365    0.001091
H   -2.994936   -0.006384    0.008900
H   -1.746013    2.148821    0.001421
H    0.729092    2.151598   -0.011420
H    2.816521   -0.298020    0.988731

 -1.7635   0.4639   3.3701    0.10

--link1--
%nproc=4
%mem=20000MB
#P b3lyp/STO-3G TD(NStates=6) SCFcyc=500 charge NoSymm

Gaussian template charges

 0 1
C    2.428280    0.001838    0.006083
C    0.915603    0.004430   -0.007524
C    0.197635   -1.202030   -0.005671
C   -1.198860   -1.208798    0.001330
C   -1.907868   -0.003065    0.005385
C   -1.206495    1.204683    0.001466
C    0.192215    1.204974   -0.005849
H    2.834884   -0.701703   -0.730361
H    2.831835    0.994935   -0.218450
H    0.739711   -2.146071   -0.011235
H   -1.734149   -2.155365    0.001091
H   -2.994936   -0.006384    0.008900
H   -1.746013    2.148821    0.001421
H    0.729092    2.151598   -0.011420
H    2.816521   -0.298020    0.988731

 -2.0491  -0.3401   3.3857    0.10

--link1--
%nproc=4
%mem=20000MB
#P b3lyp/STO-3G TD(NStates=6) SCFcyc=500 charge NoSymm

Gaussian template charges

 0 1
C    2.428280    0.001838    0.006083
C    0.915603    0.004430   -0.007524
C    0.197635   -1.202030   -0.005671
C   -1.198860   -1.208798    0.001330
C   -1.907868   -0.003065    0.005385
C   -1.206495    1.204683    0.001466
C    0.192215    1.204974   -0.005849
H    2.834884   -0.701703   -0.730361
H    2.831835    0.994935   -0.218450
H    0.739711   -2.146071   -0.011235
H   -1.734149   -2.155365    0.001091
H   -2.994936   -0.006384    0.008900
H   -1.746013    2.148821    0.001421
H    0.729092    2.151598   -0.011420
H    2.816521   -0.298020    0.988731

 -2.5410   0.1143   3.3439    0.10

--link1--
%nproc=4
%mem=20000MB
#P b3lyp/STO-3G TD(NStates=6) SCFcyc=500 charge NoSymm

Gaussian template charges

 0 1
C    2.428280    0.001838    0.006083
C    0.915603    0.004430   -0.007524
C    0.197635   -1.202030   -0.005671
C   -1.198860   -1.208798    0.001330
C   -1.907868   -0.003065    0.005385
C   -1.206495    1.204683    0.001466
C    0.192215    1.204974   -0.005849
H    2.834884   -0.701703   -0.730361
H    2.831835    0.994935   -0.218450
H    0.739711   -2.146071   -0.011235
H   -1.734149   -2.155365    0.001091
H   -2.994936   -0.006384    0.008900
H   -1.746013    2.148821    0.001421
H    0.729092    2.151598   -0.011420
H    2.816521   -0.298020    0.988731

 -2.9042   0.5960   3.2004    0.10

--link1--
%nproc=4
%mem=20000MB
#P b3lyp/STO-3G TD(NStates=6) SCFcyc=500 charge NoSymm

Gaussian template charges

 0 1
C    2.428280    0.001838    0.006083
C    0.915603    0.004430   -0.007524
C    0.197635   -1.202030   -0.005671
C   -1.198860   -1.208798    0.001330
C   -1.907868   -0.003065    0.005385
C   -1.206495    1.204683    0.001466
C    0.192215    1.204974   -0.005849
H    2.834884   -0.701703   -0.730361
H    2.831835    0.994935   -0.218450
H    0.739711   -2.146071   -0.011235
H   -1.734149   -2.155365    0.001091
H   -2.994936   -0.006384    0.008900
H   -1.746013    2.148821    0.001421
H    0.729092    2.151598   -0.011420
H    2.816521   -0.298020    0.988731

 -3.4598   0.8419   2.9101    0.10

--link1--
%nproc=4
%mem=20000MB
#P b3lyp/STO-3G TD(NStates=6) SCFcyc=500 charge NoSymm

Gaussian template charges

 0 1
C    2.428280    0.001838    0.006083
C    0.915603    0.004430   -0.007524
C    0.197635   -1.202030   -0.005671
C   -1.198860   -1.208798    0.001330
C   -1.907868   -0.003065    0.005385
C   -1.206495    1.204683    0.001466
C    0.192215    1.204974   -0.005849
H    2.834884   -0.701703   -0.730361
H    2.831835    0.994935   -0.218450
H    0.739711   -2.146071   -0.011235
H   -1.734149   -2.155365    0.001091
H   -2.994936   -0.006384    0.008900
H   -1.746013    2.148821    0.001421
H    0.729092    2.151598   -0.011420
H    2.816521   -0.298020    0.988731

 -3.4941  -1.2127   2.7587    0.10

