%nproc=4
%mem=20000MB
#P b3lyp/STO-3G TD(NStates=6) SCFcyc=500 charge NoSymm

Gaussian template charges

 0 1
C    2.428280    0.001838    0.006083
C    0.915603    0.004430   -0.007524
C    0.197635   -1.202030   -0.005671
C   -1.198860   -1.208798    0.001330
C   -1.907868   -0.003065    0.005385
C   -1.206495    1.204683    0.001466
C    0.192215    1.204974   -0.005849
H    2.834884   -0.701703   -0.730361
H    2.831835    0.994935   -0.218450
H    0.739711   -2.146071   -0.011235
H   -1.734149   -2.155365    0.001091
H   -2.994936   -0.006384    0.008900
H   -1.746013    2.148821    0.001421
H    0.729092    2.151598   -0.011420
H    2.816521   -0.298020    0.988731

 -3.3022   1.8306  -2.6017    0.10

--link1--
%nproc=4
%mem=20000MB
#P b3lyp/STO-3G TD(NStates=6) SCFcyc=500 charge NoSymm

Gaussian template charges

 0 1
C    2.428280    0.001838    0.006083
C    0.915603    0.004430   -0.007524
C    0.197635   -1.202030   -0.005671
C   -1.198860   -1.208798    0.001330
C   -1.907868   -0.003065    0.005385
C   -1.206495    1.204683    0.001466
C    0.192215    1.204974   -0.005849
H    2.834884   -0.701703   -0.730361
H    2.831835    0.994935   -0.218450
H    0.739711   -2.146071   -0.011235
H   -1.734149   -2.155365    0.001091
H   -2.994936   -0.006384    0.008900
H   -1.746013    2.148821    0.001421
H    0.729092    2.151598   -0.011420
H    2.816521   -0.298020    0.988731

 -3.0225   2.4202  -2.6032    0.10

--link1--
%nproc=4
%mem=20000MB
#P b3lyp/STO-3G TD(NStates=6) SCFcyc=500 charge NoSymm

Gaussian template charges

 0 1
C    2.428280    0.001838    0.006083
C    0.915603    0.004430   -0.007524
C    0.197635   -1.202030   -0.005671
C   -1.198860   -1.208798    0.001330
C   -1.907868   -0.003065    0.005385
C   -1.206495    1.204683    0.001466
C    0.192215    1.204974   -0.005849
H    2.834884   -0.701703   -0.730361
H    2.831835    0.994935   -0.218450
H    0.739711   -2.146071   -0.011235
H   -1.734149   -2.155365    0.001091
H   -2.994936   -0.006384    0.008900
H   -1.746013    2.148821    0.001421
H    0.729092    2.151598   -0.011420
H    2.816521   -0.298020    0.988731

 -2.4464   2.8311  -2.7147    0.10

--link1--
%nproc=4
%mem=20000MB
#P b3lyp/STO-3G TD(NStates=6) SCFcyc=500 charge NoSymm

Gaussian template charges

 0 1
C    2.428280    0.001838    0.006083
C    0.915603    0.004430   -0.007524
C    0.197635   -1.202030   -0.005671
C   -1.198860   -1.208798    0.001330
C   -1.907868   -0.003065    0.005385
C   -1.206495    1.204683    0.001466
C    0.192215    1.204974   -0.005849
H    2.834884   -0.701703   -0.730361
H    2.831835    0.994935   -0.218450
H    0.739711   -2.146071   -0.011235
H   -1.734149   -2.155365    0.001091
H   -2.994936   -0.006384    0.008900
H   -1.746013    2.148821    0.001421
H    0.729092    2.151598   -0.011420
H    2.816521   -0.298020    0.988731

 -0.7127   0.4136  -3.2681    0.10

--link1--
%nproc=4
%mem=20000MB
#P b3lyp/STO-3G TD(NStates=6) SCFcyc=500 charge NoSymm

Gaussian template charges

 0 1
C    2.428280    0.001838    0.006083
C    0.915603    0.004430   -0.007524
C    0.197635   -1.202030   -0.005671
C   -1.198860   -1.208798    0.001330
C   -1.907868   -0.003065    0.005385
C   -1.206495    1.204683    0.001466
C    0.192215    1.204974   -0.005849
H    2.834884   -0.701703   -0.730361
H    2.831835    0.994935   -0.218450
H    0.739711   -2.146071   -0.011235
H   -1.734149   -2.155365    0.001091
H   -2.994936   -0.006384    0.008900
H   -1.746013    2.148821    0.001421
H    0.729092    2.151598   -0.011420
H    2.816521   -0.298020    0.988731

  0.4035   1.3544   3.3843    0.10

--link1--
%nproc=4
%mem=20000MB
#P b3lyp/STO-3G TD(NStates=6) SCFcyc=500 charge NoSymm

Gaussian template charges

 0 1
C    2.428280    0.001838    0.006083
C    0.915603    0.004430   -0.007524
C    0.197635   -1.202030   -0.005671
C   -1.198860   -1.208798    0.001330
C   -1.907868   -0.003065    0.005385
C   -1.206495    1.204683    0.001466
C    0.192215    1.204974   -0.005849
H    2.834884   -0.701703   -0.730361
H    2.831835    0.994935   -0.218450
H    0.739711   -2.146071   -0.011235
H   -1.734149   -2.155365    0.001091
H   -2.994936   -0.006384    0.008900
H   -1.746013    2.148821    0.001421
H    0.729092    2.151598   -0.011420
H    2.816521   -0.298020    0.988731

  0.7655   2.6121   3.0357    0.10

--link1--
%nproc=4
%mem=20000MB
#P b3lyp/STO-3G TD(NStates=6) SCFcyc=500 charge NoSymm

Gaussian template charges

 0 1
C    2.428280    0.001838    0.006083
C    0.915603    0.004430   -0.007524
C    0.197635   -1.202030   -0.005671
C   -1.198860   -1.208798    0.001330
C   -1.907868   -0.003065    0.005385
C   -1.206495    1.204683    0.001466
C    0.192215    1.204974   -0.005849
H    2.834884   -0.701703   -0.730361
H    2.831835    0.994935   -0.218450
H    0.739711   -2.146071   -0.011235
H   -1.734149   -2.155365    0.001091
H   -2.994936   -0.006384    0.008900
H   -1.746013    2.148821    0.001421
H    0.729092    2.151598   -0.011420
H    2.816521   -0.298020    0.988731

  0.9571   3.2152   2.6274    0.10

--link1--
%nproc=4
%mem=20000MB
#P b3lyp/STO-3G TD(NStates=6) SCFcyc=500 charge NoSymm

Gaussian template charges

 0 1
C    2.428280    0.001838    0.006083
C    0.915603    0.004430   -0.007524
C    0.197635   -1.202030   -0.005671
C   -1.198860   -1.208798    0.001330
C   -1.907868   -0.003065    0.005385
C   -1.206495    1.204683    0.001466
C    0.192215    1.204974   -0.005849
H    2.834884   -0.701703   -0.730361
H    2.831835    0.994935   -0.218450
H    0.739711   -2.146071   -0.011235
H   -1.734149   -2.155365    0.001091
H   -2.994936   -0.006384    0.008900
H   -1.746013    2.148821    0.001421
H    0.729092    2.151598   -0.011420
H    2.816521   -0.298020    0.988731

  0.4035   1.3544   3.3843    0.10

--link1--
%nproc=4
%mem=20000MB
#P b3lyp/STO-3G TD(NStates=6) SCFcyc=500 charge NoSymm

Gaussian template charges

 0 1
C    2.428280    0.001838    0.006083
C    0.915603    0.004430   -0.007524
C    0.197635   -1.202030   -0.005671
C   -1.198860   -1.208798    0.001330
C   -1.907868   -0.003065    0.005385
C   -1.206495    1.204683    0.001466
C    0.192215    1.204974   -0.005849
H    2.834884   -0.701703   -0.730361
H    2.831835    0.994935   -0.218450
H    0.739711   -2.146071   -0.011235
H   -1.734149   -2.155365    0.001091
H   -2.994936   -0.006384    0.008900
H   -1.746013    2.148821    0.001421
H    0.729092    2.151598   -0.011420
H    2.816521   -0.298020    0.988731

 -0.3439   1.7167   3.3124    0.10

--link1--
%nproc=4
%mem=20000MB
#P b3lyp/STO-3G TD(NStates=6) SCFcyc=500 charge NoSymm

Gaussian template charges

 0 1
C    2.428280    0.001838    0.006083
C    0.915603    0.004430   -0.007524
C    0.197635   -1.202030   -0.005671
C   -1.198860   -1.208798    0.001330
C   -1.907868   -0.003065    0.005385
C   -1.206495    1.204683    0.001466
C    0.192215    1.204974   -0.005849
H    2.834884   -0.701703   -0.730361
H    2.831835    0.994935   -0.218450
H    0.739711   -2.146071   -0.011235
H   -1.734149   -2.155365    0.001091
H   -2.994936   -0.006384    0.008900
H   -1.746013    2.148821    0.001421
H    0.729092    2.151598   -0.011420
H    2.816521   -0.298020    0.988731

  0.4035   1.3544   3.3843    0.10

--link1--
%nproc=4
%mem=20000MB
#P b3lyp/STO-3G TD(NStates=6) SCFcyc=500 charge NoSymm

Gaussian template charges

 0 1
C    2.428280    0.001838    0.006083
C    0.915603    0.004430   -0.007524
C    0.197635   -1.202030   -0.005671
C   -1.198860   -1.208798    0.001330
C   -1.907868   -0.003065    0.005385
C   -1.206495    1.204683    0.001466
C    0.192215    1.204974   -0.005849
H    2.834884   -0.701703   -0.730361
H    2.831835    0.994935   -0.218450
H    0.739711   -2.146071   -0.011235
H   -1.734149   -2.155365    0.001091
H   -2.994936   -0.006384    0.008900
H   -1.746013    2.148821    0.001421
H    0.729092    2.151598   -0.011420
H    2.816521   -0.298020    0.988731

  0.4035   1.3544   3.3843    0.10

--link1--
%nproc=4
%mem=20000MB
#P b3lyp/STO-3G TD(NStates=6) SCFcyc=500 charge NoSymm

Gaussian template charges

 0 1
C    2.428280    0.001838    0.006083
C    0.915603    0.004430   -0.007524
C    0.197635   -1.202030   -0.005671
C   -1.198860   -1.208798    0.001330
C   -1.907868   -0.003065    0.005385
C   -1.206495    1.204683    0.001466
C    0.192215    1.204974   -0.005849
H    2.834884   -0.701703   -0.730361
H    2.831835    0.994935   -0.218450
H    0.739711   -2.146071   -0.011235
H   -1.734149   -2.155365    0.001091
H   -2.994936   -0.006384    0.008900
H   -1.746013    2.148821    0.001421
H    0.729092    2.151598   -0.011420
H    2.816521   -0.298020    0.988731

  1.3753   1.2720   3.1810    0.10

