%nproc=4
%mem=20000MB
#P b3lyp/STO-3G TD(NStates=6) SCFcyc=500 charge NoSymm

Gaussian template charges

 0 1
C    2.428280    0.001838    0.006083
C    0.915603    0.004430   -0.007524
C    0.197635   -1.202030   -0.005671
C   -1.198860   -1.208798    0.001330
C   -1.907868   -0.003065    0.005385
C   -1.206495    1.204683    0.001466
C    0.192215    1.204974   -0.005849
H    2.834884   -0.701703   -0.730361
H    2.831835    0.994935   -0.218450
H    0.739711   -2.146071   -0.011235
H   -1.734149   -2.155365    0.001091
H   -2.994936   -0.006384    0.008900
H   -1.746013    2.148821    0.001421
H    0.729092    2.151598   -0.011420
H    2.816521   -0.298020    0.988731

  2.4656  -2.5053   2.3023    0.10

--link1--
%nproc=4
%mem=20000MB
#P b3lyp/STO-3G TD(NStates=6) SCFcyc=500 charge NoSymm

Gaussian template charges

 0 1
C    2.428280    0.001838    0.006083
C    0.915603    0.004430   -0.007524
C    0.197635   -1.202030   -0.005671
C   -1.198860   -1.208798    0.001330
C   -1.907868   -0.003065    0.005385
C   -1.206495    1.204683    0.001466
C    0.192215    1.204974   -0.005849
H    2.834884   -0.701703   -0.730361
H    2.831835    0.994935   -0.218450
H    0.739711   -2.146071   -0.011235
H   -1.734149   -2.155365    0.001091
H   -2.994936   -0.006384    0.008900
H   -1.746013    2.148821    0.001421
H    0.729092    2.151598   -0.011420
H    2.816521   -0.298020    0.988731

  2.1330  -1.5699   3.0065    0.10

--link1--
%nproc=4
%mem=20000MB
#P b3lyp/STO-3G TD(NStates=6) SCFcyc=500 charge NoSymm

Gaussian template charges

 0 1
C    2.428280    0.001838    0.006083
C    0.915603    0.004430   -0.007524
C    0.197635   -1.202030   -0.005671
C   -1.198860   -1.208798    0.001330
C   -1.907868   -0.003065    0.005385
C   -1.206495    1.204683    0.001466
C    0.192215    1.204974   -0.005849
H    2.834884   -0.701703   -0.730361
H    2.831835    0.994935   -0.218450
H    0.739711   -2.146071   -0.011235
H   -1.734149   -2.155365    0.001091
H   -2.994936   -0.006384    0.008900
H   -1.746013    2.148821    0.001421
H    0.729092    2.151598   -0.011420
H    2.816521   -0.298020    0.988731

  4.9086  -0.6939   2.2250    0.10

--link1--
%nproc=4
%mem=20000MB
#P b3lyp/STO-3G TD(NStates=6) SCFcyc=500 charge NoSymm

Gaussian template charges

 0 1
C    2.428280    0.001838    0.006083
C    0.915603    0.004430   -0.007524
C    0.197635   -1.202030   -0.005671
C   -1.198860   -1.208798    0.001330
C   -1.907868   -0.003065    0.005385
C   -1.206495    1.204683    0.001466
C    0.192215    1.204974   -0.005849
H    2.834884   -0.701703   -0.730361
H    2.831835    0.994935   -0.218450
H    0.739711   -2.146071   -0.011235
H   -1.734149   -2.155365    0.001091
H   -2.994936   -0.006384    0.008900
H   -1.746013    2.148821    0.001421
H    0.729092    2.151598   -0.011420
H    2.816521   -0.298020    0.988731

  5.1597   1.9592  -0.5115    0.10

--link1--
%nproc=4
%mem=20000MB
#P b3lyp/STO-3G TD(NStates=6) SCFcyc=500 charge NoSymm

Gaussian template charges

 0 1
C    2.428280    0.001838    0.006083
C    0.915603    0.004430   -0.007524
C    0.197635   -1.202030   -0.005671
C   -1.198860   -1.208798    0.001330
C   -1.907868   -0.003065    0.005385
C   -1.206495    1.204683    0.001466
C    0.192215    1.204974   -0.005849
H    2.834884   -0.701703   -0.730361
H    2.831835    0.994935   -0.218450
H    0.739711   -2.146071   -0.011235
H   -1.734149   -2.155365    0.001091
H   -2.994936   -0.006384    0.008900
H   -1.746013    2.148821    0.001421
H    0.729092    2.151598   -0.011420
H    2.816521   -0.298020    0.988731

  5.4352   1.5802   0.1714    0.10

--link1--
%nproc=4
%mem=20000MB
#P b3lyp/STO-3G TD(NStates=6) SCFcyc=500 charge NoSymm

Gaussian template charges

 0 1
C    2.428280    0.001838    0.006083
C    0.915603    0.004430   -0.007524
C    0.197635   -1.202030   -0.005671
C   -1.198860   -1.208798    0.001330
C   -1.907868   -0.003065    0.005385
C   -1.206495    1.204683    0.001466
C    0.192215    1.204974   -0.005849
H    2.834884   -0.701703   -0.730361
H    2.831835    0.994935   -0.218450
H    0.739711   -2.146071   -0.011235
H   -1.734149   -2.155365    0.001091
H   -2.994936   -0.006384    0.008900
H   -1.746013    2.148821    0.001421
H    0.729092    2.151598   -0.011420
H    2.816521   -0.298020    0.988731

  5.1288   1.8634   0.9015    0.10

--link1--
%nproc=4
%mem=20000MB
#P b3lyp/STO-3G TD(NStates=6) SCFcyc=500 charge NoSymm

Gaussian template charges

 0 1
C    2.428280    0.001838    0.006083
C    0.915603    0.004430   -0.007524
C    0.197635   -1.202030   -0.005671
C   -1.198860   -1.208798    0.001330
C   -1.907868   -0.003065    0.005385
C   -1.206495    1.204683    0.001466
C    0.192215    1.204974   -0.005849
H    2.834884   -0.701703   -0.730361
H    2.831835    0.994935   -0.218450
H    0.739711   -2.146071   -0.011235
H   -1.734149   -2.155365    0.001091
H   -2.994936   -0.006384    0.008900
H   -1.746013    2.148821    0.001421
H    0.729092    2.151598   -0.011420
H    2.816521   -0.298020    0.988731

  5.3149  -1.7417  -0.4267    0.10

--link1--
%nproc=4
%mem=20000MB
#P b3lyp/STO-3G TD(NStates=6) SCFcyc=500 charge NoSymm

Gaussian template charges

 0 1
C    2.428280    0.001838    0.006083
C    0.915603    0.004430   -0.007524
C    0.197635   -1.202030   -0.005671
C   -1.198860   -1.208798    0.001330
C   -1.907868   -0.003065    0.005385
C   -1.206495    1.204683    0.001466
C    0.192215    1.204974   -0.005849
H    2.834884   -0.701703   -0.730361
H    2.831835    0.994935   -0.218450
H    0.739711   -2.146071   -0.011235
H   -1.734149   -2.155365    0.001091
H   -2.994936   -0.006384    0.008900
H   -1.746013    2.148821    0.001421
H    0.729092    2.151598   -0.011420
H    2.816521   -0.298020    0.988731

  5.3293  -1.5735   0.8200    0.10

--link1--
%nproc=4
%mem=20000MB
#P b3lyp/STO-3G TD(NStates=6) SCFcyc=500 charge NoSymm

Gaussian template charges

 0 1
C    2.428280    0.001838    0.006083
C    0.915603    0.004430   -0.007524
C    0.197635   -1.202030   -0.005671
C   -1.198860   -1.208798    0.001330
C   -1.907868   -0.003065    0.005385
C   -1.206495    1.204683    0.001466
C    0.192215    1.204974   -0.005849
H    2.834884   -0.701703   -0.730361
H    2.831835    0.994935   -0.218450
H    0.739711   -2.146071   -0.011235
H   -1.734149   -2.155365    0.001091
H   -2.994936   -0.006384    0.008900
H   -1.746013    2.148821    0.001421
H    0.729092    2.151598   -0.011420
H    2.816521   -0.298020    0.988731

  4.4459  -2.4247  -1.2592    0.10

--link1--
%nproc=4
%mem=20000MB
#P b3lyp/STO-3G TD(NStates=6) SCFcyc=500 charge NoSymm

Gaussian template charges

 0 1
C    2.428280    0.001838    0.006083
C    0.915603    0.004430   -0.007524
C    0.197635   -1.202030   -0.005671
C   -1.198860   -1.208798    0.001330
C   -1.907868   -0.003065    0.005385
C   -1.206495    1.204683    0.001466
C    0.192215    1.204974   -0.005849
H    2.834884   -0.701703   -0.730361
H    2.831835    0.994935   -0.218450
H    0.739711   -2.146071   -0.011235
H   -1.734149   -2.155365    0.001091
H   -2.994936   -0.006384    0.008900
H   -1.746013    2.148821    0.001421
H    0.729092    2.151598   -0.011420
H    2.816521   -0.298020    0.988731

  3.6479  -2.9077  -1.2617    0.10

--link1--
%nproc=4
%mem=20000MB
#P b3lyp/STO-3G TD(NStates=6) SCFcyc=500 charge NoSymm

Gaussian template charges

 0 1
C    2.428280    0.001838    0.006083
C    0.915603    0.004430   -0.007524
C    0.197635   -1.202030   -0.005671
C   -1.198860   -1.208798    0.001330
C   -1.907868   -0.003065    0.005385
C   -1.206495    1.204683    0.001466
C    0.192215    1.204974   -0.005849
H    2.834884   -0.701703   -0.730361
H    2.831835    0.994935   -0.218450
H    0.739711   -2.146071   -0.011235
H   -1.734149   -2.155365    0.001091
H   -2.994936   -0.006384    0.008900
H   -1.746013    2.148821    0.001421
H    0.729092    2.151598   -0.011420
H    2.816521   -0.298020    0.988731

  2.8814  -3.1930  -1.0653    0.10

--link1--
%nproc=4
%mem=20000MB
#P b3lyp/STO-3G TD(NStates=6) SCFcyc=500 charge NoSymm

Gaussian template charges

 0 1
C    2.428280    0.001838    0.006083
C    0.915603    0.004430   -0.007524
C    0.197635   -1.202030   -0.005671
C   -1.198860   -1.208798    0.001330
C   -1.907868   -0.003065    0.005385
C   -1.206495    1.204683    0.001466
C    0.192215    1.204974   -0.005849
H    2.834884   -0.701703   -0.730361
H    2.831835    0.994935   -0.218450
H    0.739711   -2.146071   -0.011235
H   -1.734149   -2.155365    0.001091
H   -2.994936   -0.006384    0.008900
H   -1.746013    2.148821    0.001421
H    0.729092    2.151598   -0.011420
H    2.816521   -0.298020    0.988731

  4.1385  -2.8720  -0.6073    0.10

