%nproc=4
%mem=20000MB
#P b3lyp/STO-3G TD(NStates=6) SCFcyc=500 charge NoSymm

Gaussian template charges

 0 1
C    2.428280    0.001838    0.006083
C    0.915603    0.004430   -0.007524
C    0.197635   -1.202030   -0.005671
C   -1.198860   -1.208798    0.001330
C   -1.907868   -0.003065    0.005385
C   -1.206495    1.204683    0.001466
C    0.192215    1.204974   -0.005849
H    2.834884   -0.701703   -0.730361
H    2.831835    0.994935   -0.218450
H    0.739711   -2.146071   -0.011235
H   -1.734149   -2.155365    0.001091
H   -2.994936   -0.006384    0.008900
H   -1.746013    2.148821    0.001421
H    0.729092    2.151598   -0.011420
H    2.816521   -0.298020    0.988731

  0.3244  -4.0148  -1.9115    0.10

--link1--
%nproc=4
%mem=20000MB
#P b3lyp/STO-3G TD(NStates=6) SCFcyc=500 charge NoSymm

Gaussian template charges

 0 1
C    2.428280    0.001838    0.006083
C    0.915603    0.004430   -0.007524
C    0.197635   -1.202030   -0.005671
C   -1.198860   -1.208798    0.001330
C   -1.907868   -0.003065    0.005385
C   -1.206495    1.204683    0.001466
C    0.192215    1.204974   -0.005849
H    2.834884   -0.701703   -0.730361
H    2.831835    0.994935   -0.218450
H    0.739711   -2.146071   -0.011235
H   -1.734149   -2.155365    0.001091
H   -2.994936   -0.006384    0.008900
H   -1.746013    2.148821    0.001421
H    0.729092    2.151598   -0.011420
H    2.816521   -0.298020    0.988731

  0.9116  -3.8373  -2.0319    0.10

--link1--
%nproc=4
%mem=20000MB
#P b3lyp/STO-3G TD(NStates=6) SCFcyc=500 charge NoSymm

Gaussian template charges

 0 1
C    2.428280    0.001838    0.006083
C    0.915603    0.004430   -0.007524
C    0.197635   -1.202030   -0.005671
C   -1.198860   -1.208798    0.001330
C   -1.907868   -0.003065    0.005385
C   -1.206495    1.204683    0.001466
C    0.192215    1.204974   -0.005849
H    2.834884   -0.701703   -0.730361
H    2.831835    0.994935   -0.218450
H    0.739711   -2.146071   -0.011235
H   -1.734149   -2.155365    0.001091
H   -2.994936   -0.006384    0.008900
H   -1.746013    2.148821    0.001421
H    0.729092    2.151598   -0.011420
H    2.816521   -0.298020    0.988731

  1.5819  -3.5429  -2.0462    0.10

--link1--
%nproc=4
%mem=20000MB
#P b3lyp/STO-3G TD(NStates=6) SCFcyc=500 charge NoSymm

Gaussian template charges

 0 1
C    2.428280    0.001838    0.006083
C    0.915603    0.004430   -0.007524
C    0.197635   -1.202030   -0.005671
C   -1.198860   -1.208798    0.001330
C   -1.907868   -0.003065    0.005385
C   -1.206495    1.204683    0.001466
C    0.192215    1.204974   -0.005849
H    2.834884   -0.701703   -0.730361
H    2.831835    0.994935   -0.218450
H    0.739711   -2.146071   -0.011235
H   -1.734149   -2.155365    0.001091
H   -2.994936   -0.006384    0.008900
H   -1.746013    2.148821    0.001421
H    0.729092    2.151598   -0.011420
H    2.816521   -0.298020    0.988731

 -0.3808  -3.3428  -2.5829    0.10

--link1--
%nproc=4
%mem=20000MB
#P b3lyp/STO-3G TD(NStates=6) SCFcyc=500 charge NoSymm

Gaussian template charges

 0 1
C    2.428280    0.001838    0.006083
C    0.915603    0.004430   -0.007524
C    0.197635   -1.202030   -0.005671
C   -1.198860   -1.208798    0.001330
C   -1.907868   -0.003065    0.005385
C   -1.206495    1.204683    0.001466
C    0.192215    1.204974   -0.005849
H    2.834884   -0.701703   -0.730361
H    2.831835    0.994935   -0.218450
H    0.739711   -2.146071   -0.011235
H   -1.734149   -2.155365    0.001091
H   -2.994936   -0.006384    0.008900
H   -1.746013    2.148821    0.001421
H    0.729092    2.151598   -0.011420
H    2.816521   -0.298020    0.988731

 -0.3196  -2.5443  -3.0864    0.10

--link1--
%nproc=4
%mem=20000MB
#P b3lyp/STO-3G TD(NStates=6) SCFcyc=500 charge NoSymm

Gaussian template charges

 0 1
C    2.428280    0.001838    0.006083
C    0.915603    0.004430   -0.007524
C    0.197635   -1.202030   -0.005671
C   -1.198860   -1.208798    0.001330
C   -1.907868   -0.003065    0.005385
C   -1.206495    1.204683    0.001466
C    0.192215    1.204974   -0.005849
H    2.834884   -0.701703   -0.730361
H    2.831835    0.994935   -0.218450
H    0.739711   -2.146071   -0.011235
H   -1.734149   -2.155365    0.001091
H   -2.994936   -0.006384    0.008900
H   -1.746013    2.148821    0.001421
H    0.729092    2.151598   -0.011420
H    2.816521   -0.298020    0.988731

  2.0591  -2.2213  -2.6620    0.10

--link1--
%nproc=4
%mem=20000MB
#P b3lyp/STO-3G TD(NStates=6) SCFcyc=500 charge NoSymm

Gaussian template charges

 0 1
C    2.428280    0.001838    0.006083
C    0.915603    0.004430   -0.007524
C    0.197635   -1.202030   -0.005671
C   -1.198860   -1.208798    0.001330
C   -1.907868   -0.003065    0.005385
C   -1.206495    1.204683    0.001466
C    0.192215    1.204974   -0.005849
H    2.834884   -0.701703   -0.730361
H    2.831835    0.994935   -0.218450
H    0.739711   -2.146071   -0.011235
H   -1.734149   -2.155365    0.001091
H   -2.994936   -0.006384    0.008900
H   -1.746013    2.148821    0.001421
H    0.729092    2.151598   -0.011420
H    2.816521   -0.298020    0.988731

  1.3875  -1.5240  -3.1743    0.10

--link1--
%nproc=4
%mem=20000MB
#P b3lyp/STO-3G TD(NStates=6) SCFcyc=500 charge NoSymm

Gaussian template charges

 0 1
C    2.428280    0.001838    0.006083
C    0.915603    0.004430   -0.007524
C    0.197635   -1.202030   -0.005671
C   -1.198860   -1.208798    0.001330
C   -1.907868   -0.003065    0.005385
C   -1.206495    1.204683    0.001466
C    0.192215    1.204974   -0.005849
H    2.834884   -0.701703   -0.730361
H    2.831835    0.994935   -0.218450
H    0.739711   -2.146071   -0.011235
H   -1.734149   -2.155365    0.001091
H   -2.994936   -0.006384    0.008900
H   -1.746013    2.148821    0.001421
H    0.729092    2.151598   -0.011420
H    2.816521   -0.298020    0.988731

  0.2350  -3.7092   2.2906    0.10

--link1--
%nproc=4
%mem=20000MB
#P b3lyp/STO-3G TD(NStates=6) SCFcyc=500 charge NoSymm

Gaussian template charges

 0 1
C    2.428280    0.001838    0.006083
C    0.915603    0.004430   -0.007524
C    0.197635   -1.202030   -0.005671
C   -1.198860   -1.208798    0.001330
C   -1.907868   -0.003065    0.005385
C   -1.206495    1.204683    0.001466
C    0.192215    1.204974   -0.005849
H    2.834884   -0.701703   -0.730361
H    2.831835    0.994935   -0.218450
H    0.739711   -2.146071   -0.011235
H   -1.734149   -2.155365    0.001091
H   -2.994936   -0.006384    0.008900
H   -1.746013    2.148821    0.001421
H    0.729092    2.151598   -0.011420
H    2.816521   -0.298020    0.988731

 -0.0976  -2.7737   2.9948    0.10

--link1--
%nproc=4
%mem=20000MB
#P b3lyp/STO-3G TD(NStates=6) SCFcyc=500 charge NoSymm

Gaussian template charges

 0 1
C    2.428280    0.001838    0.006083
C    0.915603    0.004430   -0.007524
C    0.197635   -1.202030   -0.005671
C   -1.198860   -1.208798    0.001330
C   -1.907868   -0.003065    0.005385
C   -1.206495    1.204683    0.001466
C    0.192215    1.204974   -0.005849
H    2.834884   -0.701703   -0.730361
H    2.831835    0.994935   -0.218450
H    0.739711   -2.146071   -0.011235
H   -1.734149   -2.155365    0.001091
H   -2.994936   -0.006384    0.008900
H   -1.746013    2.148821    0.001421
H    0.729092    2.151598   -0.011420
H    2.816521   -0.298020    0.988731

  1.9292  -2.8336   2.4233    0.10

--link1--
%nproc=4
%mem=20000MB
#P b3lyp/STO-3G TD(NStates=6) SCFcyc=500 charge NoSymm

Gaussian template charges

 0 1
C    2.428280    0.001838    0.006083
C    0.915603    0.004430   -0.007524
C    0.197635   -1.202030   -0.005671
C   -1.198860   -1.208798    0.001330
C   -1.907868   -0.003065    0.005385
C   -1.206495    1.204683    0.001466
C    0.192215    1.204974   -0.005849
H    2.834884   -0.701703   -0.730361
H    2.831835    0.994935   -0.218450
H    0.739711   -2.146071   -0.011235
H   -1.734149   -2.155365    0.001091
H   -2.994936   -0.006384    0.008900
H   -1.746013    2.148821    0.001421
H    0.729092    2.151598   -0.011420
H    2.816521   -0.298020    0.988731

  0.0191  -4.5247   0.6930    0.10

--link1--
%nproc=4
%mem=20000MB
#P b3lyp/STO-3G TD(NStates=6) SCFcyc=500 charge NoSymm

Gaussian template charges

 0 1
C    2.428280    0.001838    0.006083
C    0.915603    0.004430   -0.007524
C    0.197635   -1.202030   -0.005671
C   -1.198860   -1.208798    0.001330
C   -1.907868   -0.003065    0.005385
C   -1.206495    1.204683    0.001466
C    0.192215    1.204974   -0.005849
H    2.834884   -0.701703   -0.730361
H    2.831835    0.994935   -0.218450
H    0.739711   -2.146071   -0.011235
H   -1.734149   -2.155365    0.001091
H   -2.994936   -0.006384    0.008900
H   -1.746013    2.148821    0.001421
H    0.729092    2.151598   -0.011420
H    2.816521   -0.298020    0.988731

  2.2153  -3.6286  -1.2709    0.10

