%nproc=4
%mem=20000MB
#P b3lyp/STO-3G TD(NStates=6) SCFcyc=500 charge NoSymm

Gaussian template charges

 0 1
C    2.428280    0.001838    0.006083
C    0.915603    0.004430   -0.007524
C    0.197635   -1.202030   -0.005671
C   -1.198860   -1.208798    0.001330
C   -1.907868   -0.003065    0.005385
C   -1.206495    1.204683    0.001466
C    0.192215    1.204974   -0.005849
H    2.834884   -0.701703   -0.730361
H    2.831835    0.994935   -0.218450
H    0.739711   -2.146071   -0.011235
H   -1.734149   -2.155365    0.001091
H   -2.994936   -0.006384    0.008900
H   -1.746013    2.148821    0.001421
H    0.729092    2.151598   -0.011420
H    2.816521   -0.298020    0.988731

  1.3779   3.9450   1.6209    0.10

--link1--
%nproc=4
%mem=20000MB
#P b3lyp/STO-3G TD(NStates=6) SCFcyc=500 charge NoSymm

Gaussian template charges

 0 1
C    2.428280    0.001838    0.006083
C    0.915603    0.004430   -0.007524
C    0.197635   -1.202030   -0.005671
C   -1.198860   -1.208798    0.001330
C   -1.907868   -0.003065    0.005385
C   -1.206495    1.204683    0.001466
C    0.192215    1.204974   -0.005849
H    2.834884   -0.701703   -0.730361
H    2.831835    0.994935   -0.218450
H    0.739711   -2.146071   -0.011235
H   -1.734149   -2.155365    0.001091
H   -2.994936   -0.006384    0.008900
H   -1.746013    2.148821    0.001421
H    0.729092    2.151598   -0.011420
H    2.816521   -0.298020    0.988731

  0.5628   4.1088   1.7235    0.10

--link1--
%nproc=4
%mem=20000MB
#P b3lyp/STO-3G TD(NStates=6) SCFcyc=500 charge NoSymm

Gaussian template charges

 0 1
C    2.428280    0.001838    0.006083
C    0.915603    0.004430   -0.007524
C    0.197635   -1.202030   -0.005671
C   -1.198860   -1.208798    0.001330
C   -1.907868   -0.003065    0.005385
C   -1.206495    1.204683    0.001466
C    0.192215    1.204974   -0.005849
H    2.834884   -0.701703   -0.730361
H    2.831835    0.994935   -0.218450
H    0.739711   -2.146071   -0.011235
H   -1.734149   -2.155365    0.001091
H   -2.994936   -0.006384    0.008900
H   -1.746013    2.148821    0.001421
H    0.729092    2.151598   -0.011420
H    2.816521   -0.298020    0.988731

 -0.0959   4.1332   1.6978    0.10

--link1--
%nproc=4
%mem=20000MB
#P b3lyp/STO-3G TD(NStates=6) SCFcyc=500 charge NoSymm

Gaussian template charges

 0 1
C    2.428280    0.001838    0.006083
C    0.915603    0.004430   -0.007524
C    0.197635   -1.202030   -0.005671
C   -1.198860   -1.208798    0.001330
C   -1.907868   -0.003065    0.005385
C   -1.206495    1.204683    0.001466
C    0.192215    1.204974   -0.005849
H    2.834884   -0.701703   -0.730361
H    2.831835    0.994935   -0.218450
H    0.739711   -2.146071   -0.011235
H   -1.734149   -2.155365    0.001091
H   -2.994936   -0.006384    0.008900
H   -1.746013    2.148821    0.001421
H    0.729092    2.151598   -0.011420
H    2.816521   -0.298020    0.988731

  1.3779   3.9450   1.6209    0.10

--link1--
%nproc=4
%mem=20000MB
#P b3lyp/STO-3G TD(NStates=6) SCFcyc=500 charge NoSymm

Gaussian template charges

 0 1
C    2.428280    0.001838    0.006083
C    0.915603    0.004430   -0.007524
C    0.197635   -1.202030   -0.005671
C   -1.198860   -1.208798    0.001330
C   -1.907868   -0.003065    0.005385
C   -1.206495    1.204683    0.001466
C    0.192215    1.204974   -0.005849
H    2.834884   -0.701703   -0.730361
H    2.831835    0.994935   -0.218450
H    0.739711   -2.146071   -0.011235
H   -1.734149   -2.155365    0.001091
H   -2.994936   -0.006384    0.008900
H   -1.746013    2.148821    0.001421
H    0.729092    2.151598   -0.011420
H    2.816521   -0.298020    0.988731

  2.1888   3.3740   1.6879    0.10

--link1--
%nproc=4
%mem=20000MB
#P b3lyp/STO-3G TD(NStates=6) SCFcyc=500 charge NoSymm

Gaussian template charges

 0 1
C    2.428280    0.001838    0.006083
C    0.915603    0.004430   -0.007524
C    0.197635   -1.202030   -0.005671
C   -1.198860   -1.208798    0.001330
C   -1.907868   -0.003065    0.005385
C   -1.206495    1.204683    0.001466
C    0.192215    1.204974   -0.005849
H    2.834884   -0.701703   -0.730361
H    2.831835    0.994935   -0.218450
H    0.739711   -2.146071   -0.011235
H   -1.734149   -2.155365    0.001091
H   -2.994936   -0.006384    0.008900
H   -1.746013    2.148821    0.001421
H    0.729092    2.151598   -0.011420
H    2.816521   -0.298020    0.988731

  0.9816   4.3643   0.9716    0.10

--link1--
%nproc=4
%mem=20000MB
#P b3lyp/STO-3G TD(NStates=6) SCFcyc=500 charge NoSymm

Gaussian template charges

 0 1
C    2.428280    0.001838    0.006083
C    0.915603    0.004430   -0.007524
C    0.197635   -1.202030   -0.005671
C   -1.198860   -1.208798    0.001330
C   -1.907868   -0.003065    0.005385
C   -1.206495    1.204683    0.001466
C    0.192215    1.204974   -0.005849
H    2.834884   -0.701703   -0.730361
H    2.831835    0.994935   -0.218450
H    0.739711   -2.146071   -0.011235
H   -1.734149   -2.155365    0.001091
H   -2.994936   -0.006384    0.008900
H   -1.746013    2.148821    0.001421
H    0.729092    2.151598   -0.011420
H    2.816521   -0.298020    0.988731

  0.6215   4.5328   0.5428    0.10

--link1--
%nproc=4
%mem=20000MB
#P b3lyp/STO-3G TD(NStates=6) SCFcyc=500 charge NoSymm

Gaussian template charges

 0 1
C    2.428280    0.001838    0.006083
C    0.915603    0.004430   -0.007524
C    0.197635   -1.202030   -0.005671
C   -1.198860   -1.208798    0.001330
C   -1.907868   -0.003065    0.005385
C   -1.206495    1.204683    0.001466
C    0.192215    1.204974   -0.005849
H    2.834884   -0.701703   -0.730361
H    2.831835    0.994935   -0.218450
H    0.739711   -2.146071   -0.011235
H   -1.734149   -2.155365    0.001091
H   -2.994936   -0.006384    0.008900
H   -1.746013    2.148821    0.001421
H    0.729092    2.151598   -0.011420
H    2.816521   -0.298020    0.988731

  0.2361   4.6033   0.0909    0.10

--link1--
%nproc=4
%mem=20000MB
#P b3lyp/STO-3G TD(NStates=6) SCFcyc=500 charge NoSymm

Gaussian template charges

 0 1
C    2.428280    0.001838    0.006083
C    0.915603    0.004430   -0.007524
C    0.197635   -1.202030   -0.005671
C   -1.198860   -1.208798    0.001330
C   -1.907868   -0.003065    0.005385
C   -1.206495    1.204683    0.001466
C    0.192215    1.204974   -0.005849
H    2.834884   -0.701703   -0.730361
H    2.831835    0.994935   -0.218450
H    0.739711   -2.146071   -0.011235
H   -1.734149   -2.155365    0.001091
H   -2.994936   -0.006384    0.008900
H   -1.746013    2.148821    0.001421
H    0.729092    2.151598   -0.011420
H    2.816521   -0.298020    0.988731

 -0.2032   4.5554  -0.4283    0.10

--link1--
%nproc=4
%mem=20000MB
#P b3lyp/STO-3G TD(NStates=6) SCFcyc=500 charge NoSymm

Gaussian template charges

 0 1
C    2.428280    0.001838    0.006083
C    0.915603    0.004430   -0.007524
C    0.197635   -1.202030   -0.005671
C   -1.198860   -1.208798    0.001330
C   -1.907868   -0.003065    0.005385
C   -1.206495    1.204683    0.001466
C    0.192215    1.204974   -0.005849
H    2.834884   -0.701703   -0.730361
H    2.831835    0.994935   -0.218450
H    0.739711   -2.146071   -0.011235
H   -1.734149   -2.155365    0.001091
H   -2.994936   -0.006384    0.008900
H   -1.746013    2.148821    0.001421
H    0.729092    2.151598   -0.011420
H    2.816521   -0.298020    0.988731

  2.1118   3.4199  -1.7290    0.10

--link1--
%nproc=4
%mem=20000MB
#P b3lyp/STO-3G TD(NStates=6) SCFcyc=500 charge NoSymm

Gaussian template charges

 0 1
C    2.428280    0.001838    0.006083
C    0.915603    0.004430   -0.007524
C    0.197635   -1.202030   -0.005671
C   -1.198860   -1.208798    0.001330
C   -1.907868   -0.003065    0.005385
C   -1.206495    1.204683    0.001466
C    0.192215    1.204974   -0.005849
H    2.834884   -0.701703   -0.730361
H    2.831835    0.994935   -0.218450
H    0.739711   -2.146071   -0.011235
H   -1.734149   -2.155365    0.001091
H   -2.994936   -0.006384    0.008900
H   -1.746013    2.148821    0.001421
H    0.729092    2.151598   -0.011420
H    2.816521   -0.298020    0.988731

  1.4617   3.7207  -1.9084    0.10

--link1--
%nproc=4
%mem=20000MB
#P b3lyp/STO-3G TD(NStates=6) SCFcyc=500 charge NoSymm

Gaussian template charges

 0 1
C    2.428280    0.001838    0.006083
C    0.915603    0.004430   -0.007524
C    0.197635   -1.202030   -0.005671
C   -1.198860   -1.208798    0.001330
C   -1.907868   -0.003065    0.005385
C   -1.206495    1.204683    0.001466
C    0.192215    1.204974   -0.005849
H    2.834884   -0.701703   -0.730361
H    2.831835    0.994935   -0.218450
H    0.739711   -2.146071   -0.011235
H   -1.734149   -2.155365    0.001091
H   -2.994936   -0.006384    0.008900
H   -1.746013    2.148821    0.001421
H    0.729092    2.151598   -0.011420
H    2.816521   -0.298020    0.988731

  0.6905   3.9126  -2.0010    0.10

