%nproc=4
%mem=20000MB
#P b3lyp/STO-3G TD(NStates=6) SCFcyc=500 charge NoSymm

Gaussian template charges

 0 1
C   -4.029961   -0.222968   -0.637878
C   -3.136886    0.870231   -0.284632
C   -1.781769    0.687625   -0.151032
C   -1.149846   -0.580228   -0.347221
C   -2.012296   -1.667837   -0.695728
C   -3.368069   -1.508924   -0.834342
O   -5.274563   -0.077005   -0.765218
C    0.256165   -0.697863   -0.192646
C    1.064485   -1.811102   -0.331996
C    2.481996   -1.733977   -0.134428
O    3.166892   -0.757580    0.169148
S    3.320367   -3.373700   -0.394144
C    5.038440   -2.879696   -0.033601
H   -3.590100    1.847333   -0.129109
H   -1.149168    1.535935    0.115442
H   -1.576287   -2.653064   -0.855455
H   -4.005328   -2.350419   -1.099982
H    0.778758    0.221881    0.075172
H    0.652125   -2.781444   -0.596175
H    5.671359   -3.748593   -0.238940
H    5.148331   -2.582362    1.012602
H    5.336346   -2.043284   -0.670418

  5.8353  -5.8218   1.4728    0.10

--link1--
%nproc=4
%mem=20000MB
#P b3lyp/STO-3G TD(NStates=6) SCFcyc=500 charge NoSymm

Gaussian template charges

 0 1
C   -4.029961   -0.222968   -0.637878
C   -3.136886    0.870231   -0.284632
C   -1.781769    0.687625   -0.151032
C   -1.149846   -0.580228   -0.347221
C   -2.012296   -1.667837   -0.695728
C   -3.368069   -1.508924   -0.834342
O   -5.274563   -0.077005   -0.765218
C    0.256165   -0.697863   -0.192646
C    1.064485   -1.811102   -0.331996
C    2.481996   -1.733977   -0.134428
O    3.166892   -0.757580    0.169148
S    3.320367   -3.373700   -0.394144
C    5.038440   -2.879696   -0.033601
H   -3.590100    1.847333   -0.129109
H   -1.149168    1.535935    0.115442
H   -1.576287   -2.653064   -0.855455
H   -4.005328   -2.350419   -1.099982
H    0.778758    0.221881    0.075172
H    0.652125   -2.781444   -0.596175
H    5.671359   -3.748593   -0.238940
H    5.148331   -2.582362    1.012602
H    5.336346   -2.043284   -0.670418

  6.4582  -5.8557   0.7956    0.10

--link1--
%nproc=4
%mem=20000MB
#P b3lyp/STO-3G TD(NStates=6) SCFcyc=500 charge NoSymm

Gaussian template charges

 0 1
C   -4.029961   -0.222968   -0.637878
C   -3.136886    0.870231   -0.284632
C   -1.781769    0.687625   -0.151032
C   -1.149846   -0.580228   -0.347221
C   -2.012296   -1.667837   -0.695728
C   -3.368069   -1.508924   -0.834342
O   -5.274563   -0.077005   -0.765218
C    0.256165   -0.697863   -0.192646
C    1.064485   -1.811102   -0.331996
C    2.481996   -1.733977   -0.134428
O    3.166892   -0.757580    0.169148
S    3.320367   -3.373700   -0.394144
C    5.038440   -2.879696   -0.033601
H   -3.590100    1.847333   -0.129109
H   -1.149168    1.535935    0.115442
H   -1.576287   -2.653064   -0.855455
H   -4.005328   -2.350419   -1.099982
H    0.778758    0.221881    0.075172
H    0.652125   -2.781444   -0.596175
H    5.671359   -3.748593   -0.238940
H    5.148331   -2.582362    1.012602
H    5.336346   -2.043284   -0.670418

  8.2836  -2.1147   0.6324    0.10

--link1--
%nproc=4
%mem=20000MB
#P b3lyp/STO-3G TD(NStates=6) SCFcyc=500 charge NoSymm

Gaussian template charges

 0 1
C   -4.029961   -0.222968   -0.637878
C   -3.136886    0.870231   -0.284632
C   -1.781769    0.687625   -0.151032
C   -1.149846   -0.580228   -0.347221
C   -2.012296   -1.667837   -0.695728
C   -3.368069   -1.508924   -0.834342
O   -5.274563   -0.077005   -0.765218
C    0.256165   -0.697863   -0.192646
C    1.064485   -1.811102   -0.331996
C    2.481996   -1.733977   -0.134428
O    3.166892   -0.757580    0.169148
S    3.320367   -3.373700   -0.394144
C    5.038440   -2.879696   -0.033601
H   -3.590100    1.847333   -0.129109
H   -1.149168    1.535935    0.115442
H   -1.576287   -2.653064   -0.855455
H   -4.005328   -2.350419   -1.099982
H    0.778758    0.221881    0.075172
H    0.652125   -2.781444   -0.596175
H    5.671359   -3.748593   -0.238940
H    5.148331   -2.582362    1.012602
H    5.336346   -2.043284   -0.670418

  8.1042  -2.8457   1.4361    0.10

--link1--
%nproc=4
%mem=20000MB
#P b3lyp/STO-3G TD(NStates=6) SCFcyc=500 charge NoSymm

Gaussian template charges

 0 1
C   -4.029961   -0.222968   -0.637878
C   -3.136886    0.870231   -0.284632
C   -1.781769    0.687625   -0.151032
C   -1.149846   -0.580228   -0.347221
C   -2.012296   -1.667837   -0.695728
C   -3.368069   -1.508924   -0.834342
O   -5.274563   -0.077005   -0.765218
C    0.256165   -0.697863   -0.192646
C    1.064485   -1.811102   -0.331996
C    2.481996   -1.733977   -0.134428
O    3.166892   -0.757580    0.169148
S    3.320367   -3.373700   -0.394144
C    5.038440   -2.879696   -0.033601
H   -3.590100    1.847333   -0.129109
H   -1.149168    1.535935    0.115442
H   -1.576287   -2.653064   -0.855455
H   -4.005328   -2.350419   -1.099982
H    0.778758    0.221881    0.075172
H    0.652125   -2.781444   -0.596175
H    5.671359   -3.748593   -0.238940
H    5.148331   -2.582362    1.012602
H    5.336346   -2.043284   -0.670418

  8.3377  -3.3686   0.6267    0.10

--link1--
%nproc=4
%mem=20000MB
#P b3lyp/STO-3G TD(NStates=6) SCFcyc=500 charge NoSymm

Gaussian template charges

 0 1
C   -4.029961   -0.222968   -0.637878
C   -3.136886    0.870231   -0.284632
C   -1.781769    0.687625   -0.151032
C   -1.149846   -0.580228   -0.347221
C   -2.012296   -1.667837   -0.695728
C   -3.368069   -1.508924   -0.834342
O   -5.274563   -0.077005   -0.765218
C    0.256165   -0.697863   -0.192646
C    1.064485   -1.811102   -0.331996
C    2.481996   -1.733977   -0.134428
O    3.166892   -0.757580    0.169148
S    3.320367   -3.373700   -0.394144
C    5.038440   -2.879696   -0.033601
H   -3.590100    1.847333   -0.129109
H   -1.149168    1.535935    0.115442
H   -1.576287   -2.653064   -0.855455
H   -4.005328   -2.350419   -1.099982
H    0.778758    0.221881    0.075172
H    0.652125   -2.781444   -0.596175
H    5.671359   -3.748593   -0.238940
H    5.148331   -2.582362    1.012602
H    5.336346   -2.043284   -0.670418

  8.3491  -3.6535  -0.0552    0.10

--link1--
%nproc=4
%mem=20000MB
#P b3lyp/STO-3G TD(NStates=6) SCFcyc=500 charge NoSymm

Gaussian template charges

 0 1
C   -4.029961   -0.222968   -0.637878
C   -3.136886    0.870231   -0.284632
C   -1.781769    0.687625   -0.151032
C   -1.149846   -0.580228   -0.347221
C   -2.012296   -1.667837   -0.695728
C   -3.368069   -1.508924   -0.834342
O   -5.274563   -0.077005   -0.765218
C    0.256165   -0.697863   -0.192646
C    1.064485   -1.811102   -0.331996
C    2.481996   -1.733977   -0.134428
O    3.166892   -0.757580    0.169148
S    3.320367   -3.373700   -0.394144
C    5.038440   -2.879696   -0.033601
H   -3.590100    1.847333   -0.129109
H   -1.149168    1.535935    0.115442
H   -1.576287   -2.653064   -0.855455
H   -4.005328   -2.350419   -1.099982
H    0.778758    0.221881    0.075172
H    0.652125   -2.781444   -0.596175
H    5.671359   -3.748593   -0.238940
H    5.148331   -2.582362    1.012602
H    5.336346   -2.043284   -0.670418

  7.6869  -1.8049  -1.8749    0.10

--link1--
%nproc=4
%mem=20000MB
#P b3lyp/STO-3G TD(NStates=6) SCFcyc=500 charge NoSymm

Gaussian template charges

 0 1
C   -4.029961   -0.222968   -0.637878
C   -3.136886    0.870231   -0.284632
C   -1.781769    0.687625   -0.151032
C   -1.149846   -0.580228   -0.347221
C   -2.012296   -1.667837   -0.695728
C   -3.368069   -1.508924   -0.834342
O   -5.274563   -0.077005   -0.765218
C    0.256165   -0.697863   -0.192646
C    1.064485   -1.811102   -0.331996
C    2.481996   -1.733977   -0.134428
O    3.166892   -0.757580    0.169148
S    3.320367   -3.373700   -0.394144
C    5.038440   -2.879696   -0.033601
H   -3.590100    1.847333   -0.129109
H   -1.149168    1.535935    0.115442
H   -1.576287   -2.653064   -0.855455
H   -4.005328   -2.350419   -1.099982
H    0.778758    0.221881    0.075172
H    0.652125   -2.781444   -0.596175
H    5.671359   -3.748593   -0.238940
H    5.148331   -2.582362    1.012602
H    5.336346   -2.043284   -0.670418

  7.8861  -2.7083  -1.8834    0.10

--link1--
%nproc=4
%mem=20000MB
#P b3lyp/STO-3G TD(NStates=6) SCFcyc=500 charge NoSymm

Gaussian template charges

 0 1
C   -4.029961   -0.222968   -0.637878
C   -3.136886    0.870231   -0.284632
C   -1.781769    0.687625   -0.151032
C   -1.149846   -0.580228   -0.347221
C   -2.012296   -1.667837   -0.695728
C   -3.368069   -1.508924   -0.834342
O   -5.274563   -0.077005   -0.765218
C    0.256165   -0.697863   -0.192646
C    1.064485   -1.811102   -0.331996
C    2.481996   -1.733977   -0.134428
O    3.166892   -0.757580    0.169148
S    3.320367   -3.373700   -0.394144
C    5.038440   -2.879696   -0.033601
H   -3.590100    1.847333   -0.129109
H   -1.149168    1.535935    0.115442
H   -1.576287   -2.653064   -0.855455
H   -4.005328   -2.350419   -1.099982
H    0.778758    0.221881    0.075172
H    0.652125   -2.781444   -0.596175
H    5.671359   -3.748593   -0.238940
H    5.148331   -2.582362    1.012602
H    5.336346   -2.043284   -0.670418

  6.2957  -1.9136  -3.0413    0.10

--link1--
%nproc=4
%mem=20000MB
#P b3lyp/STO-3G TD(NStates=6) SCFcyc=500 charge NoSymm

Gaussian template charges

 0 1
C   -4.029961   -0.222968   -0.637878
C   -3.136886    0.870231   -0.284632
C   -1.781769    0.687625   -0.151032
C   -1.149846   -0.580228   -0.347221
C   -2.012296   -1.667837   -0.695728
C   -3.368069   -1.508924   -0.834342
O   -5.274563   -0.077005   -0.765218
C    0.256165   -0.697863   -0.192646
C    1.064485   -1.811102   -0.331996
C    2.481996   -1.733977   -0.134428
O    3.166892   -0.757580    0.169148
S    3.320367   -3.373700   -0.394144
C    5.038440   -2.879696   -0.033601
H   -3.590100    1.847333   -0.129109
H   -1.149168    1.535935    0.115442
H   -1.576287   -2.653064   -0.855455
H   -4.005328   -2.350419   -1.099982
H    0.778758    0.221881    0.075172
H    0.652125   -2.781444   -0.596175
H    5.671359   -3.748593   -0.238940
H    5.148331   -2.582362    1.012602
H    5.336346   -2.043284   -0.670418

  5.7524  -5.5150  -2.0598    0.10

--link1--
%nproc=4
%mem=20000MB
#P b3lyp/STO-3G TD(NStates=6) SCFcyc=500 charge NoSymm

Gaussian template charges

 0 1
C   -4.029961   -0.222968   -0.637878
C   -3.136886    0.870231   -0.284632
C   -1.781769    0.687625   -0.151032
C   -1.149846   -0.580228   -0.347221
C   -2.012296   -1.667837   -0.695728
C   -3.368069   -1.508924   -0.834342
O   -5.274563   -0.077005   -0.765218
C    0.256165   -0.697863   -0.192646
C    1.064485   -1.811102   -0.331996
C    2.481996   -1.733977   -0.134428
O    3.166892   -0.757580    0.169148
S    3.320367   -3.373700   -0.394144
C    5.038440   -2.879696   -0.033601
H   -3.590100    1.847333   -0.129109
H   -1.149168    1.535935    0.115442
H   -1.576287   -2.653064   -0.855455
H   -4.005328   -2.350419   -1.099982
H    0.778758    0.221881    0.075172
H    0.652125   -2.781444   -0.596175
H    5.671359   -3.748593   -0.238940
H    5.148331   -2.582362    1.012602
H    5.336346   -2.043284   -0.670418

  6.4228  -5.2206  -2.0742    0.10

--link1--
%nproc=4
%mem=20000MB
#P b3lyp/STO-3G TD(NStates=6) SCFcyc=500 charge NoSymm

Gaussian template charges

 0 1
C   -4.029961   -0.222968   -0.637878
C   -3.136886    0.870231   -0.284632
C   -1.781769    0.687625   -0.151032
C   -1.149846   -0.580228   -0.347221
C   -2.012296   -1.667837   -0.695728
C   -3.368069   -1.508924   -0.834342
O   -5.274563   -0.077005   -0.765218
C    0.256165   -0.697863   -0.192646
C    1.064485   -1.811102   -0.331996
C    2.481996   -1.733977   -0.134428
O    3.166892   -0.757580    0.169148
S    3.320367   -3.373700   -0.394144
C    5.038440   -2.879696   -0.033601
H   -3.590100    1.847333   -0.129109
H   -1.149168    1.535935    0.115442
H   -1.576287   -2.653064   -0.855455
H   -4.005328   -2.350419   -1.099982
H    0.778758    0.221881    0.075172
H    0.652125   -2.781444   -0.596175
H    5.671359   -3.748593   -0.238940
H    5.148331   -2.582362    1.012602
H    5.336346   -2.043284   -0.670418

  7.3649  -4.4180  -1.9782    0.10

