%nproc=4
%mem=20000MB
#P b3lyp/STO-3G TD(NStates=6) SCFcyc=500 charge NoSymm

Gaussian template charges

 0 1
C   -4.029961   -0.222968   -0.637878
C   -3.136886    0.870231   -0.284632
C   -1.781769    0.687625   -0.151032
C   -1.149846   -0.580228   -0.347221
C   -2.012296   -1.667837   -0.695728
C   -3.368069   -1.508924   -0.834342
O   -5.274563   -0.077005   -0.765218
C    0.256165   -0.697863   -0.192646
C    1.064485   -1.811102   -0.331996
C    2.481996   -1.733977   -0.134428
O    3.166892   -0.757580    0.169148
S    3.320367   -3.373700   -0.394144
C    5.038440   -2.879696   -0.033601
H   -3.590100    1.847333   -0.129109
H   -1.149168    1.535935    0.115442
H   -1.576287   -2.653064   -0.855455
H   -4.005328   -2.350419   -1.099982
H    0.778758    0.221881    0.075172
H    0.652125   -2.781444   -0.596175
H    5.671359   -3.748593   -0.238940
H    5.148331   -2.582362    1.012602
H    5.336346   -2.043284   -0.670418

  4.0990  -6.8258  -1.0547    0.10

--link1--
%nproc=4
%mem=20000MB
#P b3lyp/STO-3G TD(NStates=6) SCFcyc=500 charge NoSymm

Gaussian template charges

 0 1
C   -4.029961   -0.222968   -0.637878
C   -3.136886    0.870231   -0.284632
C   -1.781769    0.687625   -0.151032
C   -1.149846   -0.580228   -0.347221
C   -2.012296   -1.667837   -0.695728
C   -3.368069   -1.508924   -0.834342
O   -5.274563   -0.077005   -0.765218
C    0.256165   -0.697863   -0.192646
C    1.064485   -1.811102   -0.331996
C    2.481996   -1.733977   -0.134428
O    3.166892   -0.757580    0.169148
S    3.320367   -3.373700   -0.394144
C    5.038440   -2.879696   -0.033601
H   -3.590100    1.847333   -0.129109
H   -1.149168    1.535935    0.115442
H   -1.576287   -2.653064   -0.855455
H   -4.005328   -2.350419   -1.099982
H    0.778758    0.221881    0.075172
H    0.652125   -2.781444   -0.596175
H    5.671359   -3.748593   -0.238940
H    5.148331   -2.582362    1.012602
H    5.336346   -2.043284   -0.670418

  4.6521  -6.7174  -0.4740    0.10

--link1--
%nproc=4
%mem=20000MB
#P b3lyp/STO-3G TD(NStates=6) SCFcyc=500 charge NoSymm

Gaussian template charges

 0 1
C   -4.029961   -0.222968   -0.637878
C   -3.136886    0.870231   -0.284632
C   -1.781769    0.687625   -0.151032
C   -1.149846   -0.580228   -0.347221
C   -2.012296   -1.667837   -0.695728
C   -3.368069   -1.508924   -0.834342
O   -5.274563   -0.077005   -0.765218
C    0.256165   -0.697863   -0.192646
C    1.064485   -1.811102   -0.331996
C    2.481996   -1.733977   -0.134428
O    3.166892   -0.757580    0.169148
S    3.320367   -3.373700   -0.394144
C    5.038440   -2.879696   -0.033601
H   -3.590100    1.847333   -0.129109
H   -1.149168    1.535935    0.115442
H   -1.576287   -2.653064   -0.855455
H   -4.005328   -2.350419   -1.099982
H    0.778758    0.221881    0.075172
H    0.652125   -2.781444   -0.596175
H    5.671359   -3.748593   -0.238940
H    5.148331   -2.582362    1.012602
H    5.336346   -2.043284   -0.670418

  3.6133  -2.2291  -3.7948    0.10

--link1--
%nproc=4
%mem=20000MB
#P b3lyp/STO-3G TD(NStates=6) SCFcyc=500 charge NoSymm

Gaussian template charges

 0 1
C   -4.029961   -0.222968   -0.637878
C   -3.136886    0.870231   -0.284632
C   -1.781769    0.687625   -0.151032
C   -1.149846   -0.580228   -0.347221
C   -2.012296   -1.667837   -0.695728
C   -3.368069   -1.508924   -0.834342
O   -5.274563   -0.077005   -0.765218
C    0.256165   -0.697863   -0.192646
C    1.064485   -1.811102   -0.331996
C    2.481996   -1.733977   -0.134428
O    3.166892   -0.757580    0.169148
S    3.320367   -3.373700   -0.394144
C    5.038440   -2.879696   -0.033601
H   -3.590100    1.847333   -0.129109
H   -1.149168    1.535935    0.115442
H   -1.576287   -2.653064   -0.855455
H   -4.005328   -2.350419   -1.099982
H    0.778758    0.221881    0.075172
H    0.652125   -2.781444   -0.596175
H    5.671359   -3.748593   -0.238940
H    5.148331   -2.582362    1.012602
H    5.336346   -2.043284   -0.670418

  4.3334  -1.3838  -3.2179    0.10

--link1--
%nproc=4
%mem=20000MB
#P b3lyp/STO-3G TD(NStates=6) SCFcyc=500 charge NoSymm

Gaussian template charges

 0 1
C   -4.029961   -0.222968   -0.637878
C   -3.136886    0.870231   -0.284632
C   -1.781769    0.687625   -0.151032
C   -1.149846   -0.580228   -0.347221
C   -2.012296   -1.667837   -0.695728
C   -3.368069   -1.508924   -0.834342
O   -5.274563   -0.077005   -0.765218
C    0.256165   -0.697863   -0.192646
C    1.064485   -1.811102   -0.331996
C    2.481996   -1.733977   -0.134428
O    3.166892   -0.757580    0.169148
S    3.320367   -3.373700   -0.394144
C    5.038440   -2.879696   -0.033601
H   -3.590100    1.847333   -0.129109
H   -1.149168    1.535935    0.115442
H   -1.576287   -2.653064   -0.855455
H   -4.005328   -2.350419   -1.099982
H    0.778758    0.221881    0.075172
H    0.652125   -2.781444   -0.596175
H    5.671359   -3.748593   -0.238940
H    5.148331   -2.582362    1.012602
H    5.336346   -2.043284   -0.670418

  5.3458  -3.7611  -3.3450    0.10

--link1--
%nproc=4
%mem=20000MB
#P b3lyp/STO-3G TD(NStates=6) SCFcyc=500 charge NoSymm

Gaussian template charges

 0 1
C   -4.029961   -0.222968   -0.637878
C   -3.136886    0.870231   -0.284632
C   -1.781769    0.687625   -0.151032
C   -1.149846   -0.580228   -0.347221
C   -2.012296   -1.667837   -0.695728
C   -3.368069   -1.508924   -0.834342
O   -5.274563   -0.077005   -0.765218
C    0.256165   -0.697863   -0.192646
C    1.064485   -1.811102   -0.331996
C    2.481996   -1.733977   -0.134428
O    3.166892   -0.757580    0.169148
S    3.320367   -3.373700   -0.394144
C    5.038440   -2.879696   -0.033601
H   -3.590100    1.847333   -0.129109
H   -1.149168    1.535935    0.115442
H   -1.576287   -2.653064   -0.855455
H   -4.005328   -2.350419   -1.099982
H    0.778758    0.221881    0.075172
H    0.652125   -2.781444   -0.596175
H    5.671359   -3.748593   -0.238940
H    5.148331   -2.582362    1.012602
H    5.336346   -2.043284   -0.670418

  5.0411  -2.9644  -3.5297    0.10

--link1--
%nproc=4
%mem=20000MB
#P b3lyp/STO-3G TD(NStates=6) SCFcyc=500 charge NoSymm

Gaussian template charges

 0 1
C   -4.029961   -0.222968   -0.637878
C   -3.136886    0.870231   -0.284632
C   -1.781769    0.687625   -0.151032
C   -1.149846   -0.580228   -0.347221
C   -2.012296   -1.667837   -0.695728
C   -3.368069   -1.508924   -0.834342
O   -5.274563   -0.077005   -0.765218
C    0.256165   -0.697863   -0.192646
C    1.064485   -1.811102   -0.331996
C    2.481996   -1.733977   -0.134428
O    3.166892   -0.757580    0.169148
S    3.320367   -3.373700   -0.394144
C    5.038440   -2.879696   -0.033601
H   -3.590100    1.847333   -0.129109
H   -1.149168    1.535935    0.115442
H   -1.576287   -2.653064   -0.855455
H   -4.005328   -2.350419   -1.099982
H    0.778758    0.221881    0.075172
H    0.652125   -2.781444   -0.596175
H    5.671359   -3.748593   -0.238940
H    5.148331   -2.582362    1.012602
H    5.336346   -2.043284   -0.670418

  2.4951  -2.8829  -3.8637    0.10

--link1--
%nproc=4
%mem=20000MB
#P b3lyp/STO-3G TD(NStates=6) SCFcyc=500 charge NoSymm

Gaussian template charges

 0 1
C   -4.029961   -0.222968   -0.637878
C   -3.136886    0.870231   -0.284632
C   -1.781769    0.687625   -0.151032
C   -1.149846   -0.580228   -0.347221
C   -2.012296   -1.667837   -0.695728
C   -3.368069   -1.508924   -0.834342
O   -5.274563   -0.077005   -0.765218
C    0.256165   -0.697863   -0.192646
C    1.064485   -1.811102   -0.331996
C    2.481996   -1.733977   -0.134428
O    3.166892   -0.757580    0.169148
S    3.320367   -3.373700   -0.394144
C    5.038440   -2.879696   -0.033601
H   -3.590100    1.847333   -0.129109
H   -1.149168    1.535935    0.115442
H   -1.576287   -2.653064   -0.855455
H   -4.005328   -2.350419   -1.099982
H    0.778758    0.221881    0.075172
H    0.652125   -2.781444   -0.596175
H    5.671359   -3.748593   -0.238940
H    5.148331   -2.582362    1.012602
H    5.336346   -2.043284   -0.670418

  1.7332  -2.8264  -3.5787    0.10

--link1--
%nproc=4
%mem=20000MB
#P b3lyp/STO-3G TD(NStates=6) SCFcyc=500 charge NoSymm

Gaussian template charges

 0 1
C   -4.029961   -0.222968   -0.637878
C   -3.136886    0.870231   -0.284632
C   -1.781769    0.687625   -0.151032
C   -1.149846   -0.580228   -0.347221
C   -2.012296   -1.667837   -0.695728
C   -3.368069   -1.508924   -0.834342
O   -5.274563   -0.077005   -0.765218
C    0.256165   -0.697863   -0.192646
C    1.064485   -1.811102   -0.331996
C    2.481996   -1.733977   -0.134428
O    3.166892   -0.757580    0.169148
S    3.320367   -3.373700   -0.394144
C    5.038440   -2.879696   -0.033601
H   -3.590100    1.847333   -0.129109
H   -1.149168    1.535935    0.115442
H   -1.576287   -2.653064   -0.855455
H   -4.005328   -2.350419   -1.099982
H    0.778758    0.221881    0.075172
H    0.652125   -2.781444   -0.596175
H    5.671359   -3.748593   -0.238940
H    5.148331   -2.582362    1.012602
H    5.336346   -2.043284   -0.670418

  2.3972  -4.0420  -3.8090    0.10

--link1--
%nproc=4
%mem=20000MB
#P b3lyp/STO-3G TD(NStates=6) SCFcyc=500 charge NoSymm

Gaussian template charges

 0 1
C   -4.029961   -0.222968   -0.637878
C   -3.136886    0.870231   -0.284632
C   -1.781769    0.687625   -0.151032
C   -1.149846   -0.580228   -0.347221
C   -2.012296   -1.667837   -0.695728
C   -3.368069   -1.508924   -0.834342
O   -5.274563   -0.077005   -0.765218
C    0.256165   -0.697863   -0.192646
C    1.064485   -1.811102   -0.331996
C    2.481996   -1.733977   -0.134428
O    3.166892   -0.757580    0.169148
S    3.320367   -3.373700   -0.394144
C    5.038440   -2.879696   -0.033601
H   -3.590100    1.847333   -0.129109
H   -1.149168    1.535935    0.115442
H   -1.576287   -2.653064   -0.855455
H   -4.005328   -2.350419   -1.099982
H    0.778758    0.221881    0.075172
H    0.652125   -2.781444   -0.596175
H    5.671359   -3.748593   -0.238940
H    5.148331   -2.582362    1.012602
H    5.336346   -2.043284   -0.670418

  1.9456  -5.2813  -3.1202    0.10

--link1--
%nproc=4
%mem=20000MB
#P b3lyp/STO-3G TD(NStates=6) SCFcyc=500 charge NoSymm

Gaussian template charges

 0 1
C   -4.029961   -0.222968   -0.637878
C   -3.136886    0.870231   -0.284632
C   -1.781769    0.687625   -0.151032
C   -1.149846   -0.580228   -0.347221
C   -2.012296   -1.667837   -0.695728
C   -3.368069   -1.508924   -0.834342
O   -5.274563   -0.077005   -0.765218
C    0.256165   -0.697863   -0.192646
C    1.064485   -1.811102   -0.331996
C    2.481996   -1.733977   -0.134428
O    3.166892   -0.757580    0.169148
S    3.320367   -3.373700   -0.394144
C    5.038440   -2.879696   -0.033601
H   -3.590100    1.847333   -0.129109
H   -1.149168    1.535935    0.115442
H   -1.576287   -2.653064   -0.855455
H   -4.005328   -2.350419   -1.099982
H    0.778758    0.221881    0.075172
H    0.652125   -2.781444   -0.596175
H    5.671359   -3.748593   -0.238940
H    5.148331   -2.582362    1.012602
H    5.336346   -2.043284   -0.670418

  1.4702  -4.7111  -3.1778    0.10

--link1--
%nproc=4
%mem=20000MB
#P b3lyp/STO-3G TD(NStates=6) SCFcyc=500 charge NoSymm

Gaussian template charges

 0 1
C   -4.029961   -0.222968   -0.637878
C   -3.136886    0.870231   -0.284632
C   -1.781769    0.687625   -0.151032
C   -1.149846   -0.580228   -0.347221
C   -2.012296   -1.667837   -0.695728
C   -3.368069   -1.508924   -0.834342
O   -5.274563   -0.077005   -0.765218
C    0.256165   -0.697863   -0.192646
C    1.064485   -1.811102   -0.331996
C    2.481996   -1.733977   -0.134428
O    3.166892   -0.757580    0.169148
S    3.320367   -3.373700   -0.394144
C    5.038440   -2.879696   -0.033601
H   -3.590100    1.847333   -0.129109
H   -1.149168    1.535935    0.115442
H   -1.576287   -2.653064   -0.855455
H   -4.005328   -2.350419   -1.099982
H    0.778758    0.221881    0.075172
H    0.652125   -2.781444   -0.596175
H    5.671359   -3.748593   -0.238940
H    5.148331   -2.582362    1.012602
H    5.336346   -2.043284   -0.670418

  3.7223  -4.1893  -3.8774    0.10

