%nproc=4
%mem=20000MB
#P b3lyp/STO-3G TD(NStates=6) SCFcyc=500 charge NoSymm

Gaussian template charges

 0 1
C   -4.029961   -0.222968   -0.637878
C   -3.136886    0.870231   -0.284632
C   -1.781769    0.687625   -0.151032
C   -1.149846   -0.580228   -0.347221
C   -2.012296   -1.667837   -0.695728
C   -3.368069   -1.508924   -0.834342
O   -5.274563   -0.077005   -0.765218
C    0.256165   -0.697863   -0.192646
C    1.064485   -1.811102   -0.331996
C    2.481996   -1.733977   -0.134428
O    3.166892   -0.757580    0.169148
S    3.320367   -3.373700   -0.394144
C    5.038440   -2.879696   -0.033601
H   -3.590100    1.847333   -0.129109
H   -1.149168    1.535935    0.115442
H   -1.576287   -2.653064   -0.855455
H   -4.005328   -2.350419   -1.099982
H    0.778758    0.221881    0.075172
H    0.652125   -2.781444   -0.596175
H    5.671359   -3.748593   -0.238940
H    5.148331   -2.582362    1.012602
H    5.336346   -2.043284   -0.670418

  3.9105  -1.2771   3.0707    0.10

--link1--
%nproc=4
%mem=20000MB
#P b3lyp/STO-3G TD(NStates=6) SCFcyc=500 charge NoSymm

Gaussian template charges

 0 1
C   -4.029961   -0.222968   -0.637878
C   -3.136886    0.870231   -0.284632
C   -1.781769    0.687625   -0.151032
C   -1.149846   -0.580228   -0.347221
C   -2.012296   -1.667837   -0.695728
C   -3.368069   -1.508924   -0.834342
O   -5.274563   -0.077005   -0.765218
C    0.256165   -0.697863   -0.192646
C    1.064485   -1.811102   -0.331996
C    2.481996   -1.733977   -0.134428
O    3.166892   -0.757580    0.169148
S    3.320367   -3.373700   -0.394144
C    5.038440   -2.879696   -0.033601
H   -3.590100    1.847333   -0.129109
H   -1.149168    1.535935    0.115442
H   -1.576287   -2.653064   -0.855455
H   -4.005328   -2.350419   -1.099982
H    0.778758    0.221881    0.075172
H    0.652125   -2.781444   -0.596175
H    5.671359   -3.748593   -0.238940
H    5.148331   -2.582362    1.012602
H    5.336346   -2.043284   -0.670418

  3.3393   1.5230   2.1718    0.10

--link1--
%nproc=4
%mem=20000MB
#P b3lyp/STO-3G TD(NStates=6) SCFcyc=500 charge NoSymm

Gaussian template charges

 0 1
C   -4.029961   -0.222968   -0.637878
C   -3.136886    0.870231   -0.284632
C   -1.781769    0.687625   -0.151032
C   -1.149846   -0.580228   -0.347221
C   -2.012296   -1.667837   -0.695728
C   -3.368069   -1.508924   -0.834342
O   -5.274563   -0.077005   -0.765218
C    0.256165   -0.697863   -0.192646
C    1.064485   -1.811102   -0.331996
C    2.481996   -1.733977   -0.134428
O    3.166892   -0.757580    0.169148
S    3.320367   -3.373700   -0.394144
C    5.038440   -2.879696   -0.033601
H   -3.590100    1.847333   -0.129109
H   -1.149168    1.535935    0.115442
H   -1.576287   -2.653064   -0.855455
H   -4.005328   -2.350419   -1.099982
H    0.778758    0.221881    0.075172
H    0.652125   -2.781444   -0.596175
H    5.671359   -3.748593   -0.238940
H    5.148331   -2.582362    1.012602
H    5.336346   -2.043284   -0.670418

  4.3191   1.2277   2.1623    0.10

--link1--
%nproc=4
%mem=20000MB
#P b3lyp/STO-3G TD(NStates=6) SCFcyc=500 charge NoSymm

Gaussian template charges

 0 1
C   -4.029961   -0.222968   -0.637878
C   -3.136886    0.870231   -0.284632
C   -1.781769    0.687625   -0.151032
C   -1.149846   -0.580228   -0.347221
C   -2.012296   -1.667837   -0.695728
C   -3.368069   -1.508924   -0.834342
O   -5.274563   -0.077005   -0.765218
C    0.256165   -0.697863   -0.192646
C    1.064485   -1.811102   -0.331996
C    2.481996   -1.733977   -0.134428
O    3.166892   -0.757580    0.169148
S    3.320367   -3.373700   -0.394144
C    5.038440   -2.879696   -0.033601
H   -3.590100    1.847333   -0.129109
H   -1.149168    1.535935    0.115442
H   -1.576287   -2.653064   -0.855455
H   -4.005328   -2.350419   -1.099982
H    0.778758    0.221881    0.075172
H    0.652125   -2.781444   -0.596175
H    5.671359   -3.748593   -0.238940
H    5.148331   -2.582362    1.012602
H    5.336346   -2.043284   -0.670418

  3.1443   2.0703   1.2845    0.10

--link1--
%nproc=4
%mem=20000MB
#P b3lyp/STO-3G TD(NStates=6) SCFcyc=500 charge NoSymm

Gaussian template charges

 0 1
C   -4.029961   -0.222968   -0.637878
C   -3.136886    0.870231   -0.284632
C   -1.781769    0.687625   -0.151032
C   -1.149846   -0.580228   -0.347221
C   -2.012296   -1.667837   -0.695728
C   -3.368069   -1.508924   -0.834342
O   -5.274563   -0.077005   -0.765218
C    0.256165   -0.697863   -0.192646
C    1.064485   -1.811102   -0.331996
C    2.481996   -1.733977   -0.134428
O    3.166892   -0.757580    0.169148
S    3.320367   -3.373700   -0.394144
C    5.038440   -2.879696   -0.033601
H   -3.590100    1.847333   -0.129109
H   -1.149168    1.535935    0.115442
H   -1.576287   -2.653064   -0.855455
H   -4.005328   -2.350419   -1.099982
H    0.778758    0.221881    0.075172
H    0.652125   -2.781444   -0.596175
H    5.671359   -3.748593   -0.238940
H    5.148331   -2.582362    1.012602
H    5.336346   -2.043284   -0.670418

  4.8181   1.5476   1.2651    0.10

--link1--
%nproc=4
%mem=20000MB
#P b3lyp/STO-3G TD(NStates=6) SCFcyc=500 charge NoSymm

Gaussian template charges

 0 1
C   -4.029961   -0.222968   -0.637878
C   -3.136886    0.870231   -0.284632
C   -1.781769    0.687625   -0.151032
C   -1.149846   -0.580228   -0.347221
C   -2.012296   -1.667837   -0.695728
C   -3.368069   -1.508924   -0.834342
O   -5.274563   -0.077005   -0.765218
C    0.256165   -0.697863   -0.192646
C    1.064485   -1.811102   -0.331996
C    2.481996   -1.733977   -0.134428
O    3.166892   -0.757580    0.169148
S    3.320367   -3.373700   -0.394144
C    5.038440   -2.879696   -0.033601
H   -3.590100    1.847333   -0.129109
H   -1.149168    1.535935    0.115442
H   -1.576287   -2.653064   -0.855455
H   -4.005328   -2.350419   -1.099982
H    0.778758    0.221881    0.075172
H    0.652125   -2.781444   -0.596175
H    5.671359   -3.748593   -0.238940
H    5.148331   -2.582362    1.012602
H    5.336346   -2.043284   -0.670418

  4.0986   2.0936   0.6636    0.10

--link1--
%nproc=4
%mem=20000MB
#P b3lyp/STO-3G TD(NStates=6) SCFcyc=500 charge NoSymm

Gaussian template charges

 0 1
C   -4.029961   -0.222968   -0.637878
C   -3.136886    0.870231   -0.284632
C   -1.781769    0.687625   -0.151032
C   -1.149846   -0.580228   -0.347221
C   -2.012296   -1.667837   -0.695728
C   -3.368069   -1.508924   -0.834342
O   -5.274563   -0.077005   -0.765218
C    0.256165   -0.697863   -0.192646
C    1.064485   -1.811102   -0.331996
C    2.481996   -1.733977   -0.134428
O    3.166892   -0.757580    0.169148
S    3.320367   -3.373700   -0.394144
C    5.038440   -2.879696   -0.033601
H   -3.590100    1.847333   -0.129109
H   -1.149168    1.535935    0.115442
H   -1.576287   -2.653064   -0.855455
H   -4.005328   -2.350419   -1.099982
H    0.778758    0.221881    0.075172
H    0.652125   -2.781444   -0.596175
H    5.671359   -3.748593   -0.238940
H    5.148331   -2.582362    1.012602
H    5.336346   -2.043284   -0.670418

  5.4613  -0.1803   2.0781    0.10

--link1--
%nproc=4
%mem=20000MB
#P b3lyp/STO-3G TD(NStates=6) SCFcyc=500 charge NoSymm

Gaussian template charges

 0 1
C   -4.029961   -0.222968   -0.637878
C   -3.136886    0.870231   -0.284632
C   -1.781769    0.687625   -0.151032
C   -1.149846   -0.580228   -0.347221
C   -2.012296   -1.667837   -0.695728
C   -3.368069   -1.508924   -0.834342
O   -5.274563   -0.077005   -0.765218
C    0.256165   -0.697863   -0.192646
C    1.064485   -1.811102   -0.331996
C    2.481996   -1.733977   -0.134428
O    3.166892   -0.757580    0.169148
S    3.320367   -3.373700   -0.394144
C    5.038440   -2.879696   -0.033601
H   -3.590100    1.847333   -0.129109
H   -1.149168    1.535935    0.115442
H   -1.576287   -2.653064   -0.855455
H   -4.005328   -2.350419   -1.099982
H    0.778758    0.221881    0.075172
H    0.652125   -2.781444   -0.596175
H    5.671359   -3.748593   -0.238940
H    5.148331   -2.582362    1.012602
H    5.336346   -2.043284   -0.670418

  5.5830   1.0204  -0.3239    0.10

--link1--
%nproc=4
%mem=20000MB
#P b3lyp/STO-3G TD(NStates=6) SCFcyc=500 charge NoSymm

Gaussian template charges

 0 1
C   -4.029961   -0.222968   -0.637878
C   -3.136886    0.870231   -0.284632
C   -1.781769    0.687625   -0.151032
C   -1.149846   -0.580228   -0.347221
C   -2.012296   -1.667837   -0.695728
C   -3.368069   -1.508924   -0.834342
O   -5.274563   -0.077005   -0.765218
C    0.256165   -0.697863   -0.192646
C    1.064485   -1.811102   -0.331996
C    2.481996   -1.733977   -0.134428
O    3.166892   -0.757580    0.169148
S    3.320367   -3.373700   -0.394144
C    5.038440   -2.879696   -0.033601
H   -3.590100    1.847333   -0.129109
H   -1.149168    1.535935    0.115442
H   -1.576287   -2.653064   -0.855455
H   -4.005328   -2.350419   -1.099982
H    0.778758    0.221881    0.075172
H    0.652125   -2.781444   -0.596175
H    5.671359   -3.748593   -0.238940
H    5.148331   -2.582362    1.012602
H    5.336346   -2.043284   -0.670418

  4.8651   1.5432  -0.8625    0.10

--link1--
%nproc=4
%mem=20000MB
#P b3lyp/STO-3G TD(NStates=6) SCFcyc=500 charge NoSymm

Gaussian template charges

 0 1
C   -4.029961   -0.222968   -0.637878
C   -3.136886    0.870231   -0.284632
C   -1.781769    0.687625   -0.151032
C   -1.149846   -0.580228   -0.347221
C   -2.012296   -1.667837   -0.695728
C   -3.368069   -1.508924   -0.834342
O   -5.274563   -0.077005   -0.765218
C    0.256165   -0.697863   -0.192646
C    1.064485   -1.811102   -0.331996
C    2.481996   -1.733977   -0.134428
O    3.166892   -0.757580    0.169148
S    3.320367   -3.373700   -0.394144
C    5.038440   -2.879696   -0.033601
H   -3.590100    1.847333   -0.129109
H   -1.149168    1.535935    0.115442
H   -1.576287   -2.653064   -0.855455
H   -4.005328   -2.350419   -1.099982
H    0.778758    0.221881    0.075172
H    0.652125   -2.781444   -0.596175
H    5.671359   -3.748593   -0.238940
H    5.148331   -2.582362    1.012602
H    5.336346   -2.043284   -0.670418

  4.6844   1.0237  -1.7714    0.10

--link1--
%nproc=4
%mem=20000MB
#P b3lyp/STO-3G TD(NStates=6) SCFcyc=500 charge NoSymm

Gaussian template charges

 0 1
C   -4.029961   -0.222968   -0.637878
C   -3.136886    0.870231   -0.284632
C   -1.781769    0.687625   -0.151032
C   -1.149846   -0.580228   -0.347221
C   -2.012296   -1.667837   -0.695728
C   -3.368069   -1.508924   -0.834342
O   -5.274563   -0.077005   -0.765218
C    0.256165   -0.697863   -0.192646
C    1.064485   -1.811102   -0.331996
C    2.481996   -1.733977   -0.134428
O    3.166892   -0.757580    0.169148
S    3.320367   -3.373700   -0.394144
C    5.038440   -2.879696   -0.033601
H   -3.590100    1.847333   -0.129109
H   -1.149168    1.535935    0.115442
H   -1.576287   -2.653064   -0.855455
H   -4.005328   -2.350419   -1.099982
H    0.778758    0.221881    0.075172
H    0.652125   -2.781444   -0.596175
H    5.671359   -3.748593   -0.238940
H    5.148331   -2.582362    1.012602
H    5.336346   -2.043284   -0.670418

  5.3020   0.1370  -1.8013    0.10

--link1--
%nproc=4
%mem=20000MB
#P b3lyp/STO-3G TD(NStates=6) SCFcyc=500 charge NoSymm

Gaussian template charges

 0 1
C   -4.029961   -0.222968   -0.637878
C   -3.136886    0.870231   -0.284632
C   -1.781769    0.687625   -0.151032
C   -1.149846   -0.580228   -0.347221
C   -2.012296   -1.667837   -0.695728
C   -3.368069   -1.508924   -0.834342
O   -5.274563   -0.077005   -0.765218
C    0.256165   -0.697863   -0.192646
C    1.064485   -1.811102   -0.331996
C    2.481996   -1.733977   -0.134428
O    3.166892   -0.757580    0.169148
S    3.320367   -3.373700   -0.394144
C    5.038440   -2.879696   -0.033601
H   -3.590100    1.847333   -0.129109
H   -1.149168    1.535935    0.115442
H   -1.576287   -2.653064   -0.855455
H   -4.005328   -2.350419   -1.099982
H    0.778758    0.221881    0.075172
H    0.652125   -2.781444   -0.596175
H    5.671359   -3.748593   -0.238940
H    5.148331   -2.582362    1.012602
H    5.336346   -2.043284   -0.670418

  3.1544   2.0904  -0.8940    0.10

