%nproc=4
%mem=20000MB
#P b3lyp/STO-3G TD(NStates=6) SCFcyc=500 charge NoSymm

Gaussian template charges

 0 1
C   -4.029961   -0.222968   -0.637878
C   -3.136886    0.870231   -0.284632
C   -1.781769    0.687625   -0.151032
C   -1.149846   -0.580228   -0.347221
C   -2.012296   -1.667837   -0.695728
C   -3.368069   -1.508924   -0.834342
O   -5.274563   -0.077005   -0.765218
C    0.256165   -0.697863   -0.192646
C    1.064485   -1.811102   -0.331996
C    2.481996   -1.733977   -0.134428
O    3.166892   -0.757580    0.169148
S    3.320367   -3.373700   -0.394144
C    5.038440   -2.879696   -0.033601
H   -3.590100    1.847333   -0.129109
H   -1.149168    1.535935    0.115442
H   -1.576287   -2.653064   -0.855455
H   -4.005328   -2.350419   -1.099982
H    0.778758    0.221881    0.075172
H    0.652125   -2.781444   -0.596175
H    5.671359   -3.748593   -0.238940
H    5.148331   -2.582362    1.012602
H    5.336346   -2.043284   -0.670418

 -8.2721  -0.1787  -1.2610    0.10

--link1--
%nproc=4
%mem=20000MB
#P b3lyp/STO-3G TD(NStates=6) SCFcyc=500 charge NoSymm

Gaussian template charges

 0 1
C   -4.029961   -0.222968   -0.637878
C   -3.136886    0.870231   -0.284632
C   -1.781769    0.687625   -0.151032
C   -1.149846   -0.580228   -0.347221
C   -2.012296   -1.667837   -0.695728
C   -3.368069   -1.508924   -0.834342
O   -5.274563   -0.077005   -0.765218
C    0.256165   -0.697863   -0.192646
C    1.064485   -1.811102   -0.331996
C    2.481996   -1.733977   -0.134428
O    3.166892   -0.757580    0.169148
S    3.320367   -3.373700   -0.394144
C    5.038440   -2.879696   -0.033601
H   -3.590100    1.847333   -0.129109
H   -1.149168    1.535935    0.115442
H   -1.576287   -2.653064   -0.855455
H   -4.005328   -2.350419   -1.099982
H    0.778758    0.221881    0.075172
H    0.652125   -2.781444   -0.596175
H    5.671359   -3.748593   -0.238940
H    5.148331   -2.582362    1.012602
H    5.336346   -2.043284   -0.670418

 -8.0162   0.7685  -1.7703    0.10

--link1--
%nproc=4
%mem=20000MB
#P b3lyp/STO-3G TD(NStates=6) SCFcyc=500 charge NoSymm

Gaussian template charges

 0 1
C   -4.029961   -0.222968   -0.637878
C   -3.136886    0.870231   -0.284632
C   -1.781769    0.687625   -0.151032
C   -1.149846   -0.580228   -0.347221
C   -2.012296   -1.667837   -0.695728
C   -3.368069   -1.508924   -0.834342
O   -5.274563   -0.077005   -0.765218
C    0.256165   -0.697863   -0.192646
C    1.064485   -1.811102   -0.331996
C    2.481996   -1.733977   -0.134428
O    3.166892   -0.757580    0.169148
S    3.320367   -3.373700   -0.394144
C    5.038440   -2.879696   -0.033601
H   -3.590100    1.847333   -0.129109
H   -1.149168    1.535935    0.115442
H   -1.576287   -2.653064   -0.855455
H   -4.005328   -2.350419   -1.099982
H    0.778758    0.221881    0.075172
H    0.652125   -2.781444   -0.596175
H    5.671359   -3.748593   -0.238940
H    5.148331   -2.582362    1.012602
H    5.336346   -2.043284   -0.670418

 -7.9853  -0.9516  -1.8277    0.10

--link1--
%nproc=4
%mem=20000MB
#P b3lyp/STO-3G TD(NStates=6) SCFcyc=500 charge NoSymm

Gaussian template charges

 0 1
C   -4.029961   -0.222968   -0.637878
C   -3.136886    0.870231   -0.284632
C   -1.781769    0.687625   -0.151032
C   -1.149846   -0.580228   -0.347221
C   -2.012296   -1.667837   -0.695728
C   -3.368069   -1.508924   -0.834342
O   -5.274563   -0.077005   -0.765218
C    0.256165   -0.697863   -0.192646
C    1.064485   -1.811102   -0.331996
C    2.481996   -1.733977   -0.134428
O    3.166892   -0.757580    0.169148
S    3.320367   -3.373700   -0.394144
C    5.038440   -2.879696   -0.033601
H   -3.590100    1.847333   -0.129109
H   -1.149168    1.535935    0.115442
H   -1.576287   -2.653064   -0.855455
H   -4.005328   -2.350419   -1.099982
H    0.778758    0.221881    0.075172
H    0.652125   -2.781444   -0.596175
H    5.671359   -3.748593   -0.238940
H    5.148331   -2.582362    1.012602
H    5.336346   -2.043284   -0.670418

 -7.5241   0.3929  -2.7553    0.10

--link1--
%nproc=4
%mem=20000MB
#P b3lyp/STO-3G TD(NStates=6) SCFcyc=500 charge NoSymm

Gaussian template charges

 0 1
C   -4.029961   -0.222968   -0.637878
C   -3.136886    0.870231   -0.284632
C   -1.781769    0.687625   -0.151032
C   -1.149846   -0.580228   -0.347221
C   -2.012296   -1.667837   -0.695728
C   -3.368069   -1.508924   -0.834342
O   -5.274563   -0.077005   -0.765218
C    0.256165   -0.697863   -0.192646
C    1.064485   -1.811102   -0.331996
C    2.481996   -1.733977   -0.134428
O    3.166892   -0.757580    0.169148
S    3.320367   -3.373700   -0.394144
C    5.038440   -2.879696   -0.033601
H   -3.590100    1.847333   -0.129109
H   -1.149168    1.535935    0.115442
H   -1.576287   -2.653064   -0.855455
H   -4.005328   -2.350419   -1.099982
H    0.778758    0.221881    0.075172
H    0.652125   -2.781444   -0.596175
H    5.671359   -3.748593   -0.238940
H    5.148331   -2.582362    1.012602
H    5.336346   -2.043284   -0.670418

 -7.5495  -0.6798  -2.6895    0.10

--link1--
%nproc=4
%mem=20000MB
#P b3lyp/STO-3G TD(NStates=6) SCFcyc=500 charge NoSymm

Gaussian template charges

 0 1
C   -4.029961   -0.222968   -0.637878
C   -3.136886    0.870231   -0.284632
C   -1.781769    0.687625   -0.151032
C   -1.149846   -0.580228   -0.347221
C   -2.012296   -1.667837   -0.695728
C   -3.368069   -1.508924   -0.834342
O   -5.274563   -0.077005   -0.765218
C    0.256165   -0.697863   -0.192646
C    1.064485   -1.811102   -0.331996
C    2.481996   -1.733977   -0.134428
O    3.166892   -0.757580    0.169148
S    3.320367   -3.373700   -0.394144
C    5.038440   -2.879696   -0.033601
H   -3.590100    1.847333   -0.129109
H   -1.149168    1.535935    0.115442
H   -1.576287   -2.653064   -0.855455
H   -4.005328   -2.350419   -1.099982
H    0.778758    0.221881    0.075172
H    0.652125   -2.781444   -0.596175
H    5.671359   -3.748593   -0.238940
H    5.148331   -2.582362    1.012602
H    5.336346   -2.043284   -0.670418

 -6.9308  -2.3933  -1.8297    0.10

--link1--
%nproc=4
%mem=20000MB
#P b3lyp/STO-3G TD(NStates=6) SCFcyc=500 charge NoSymm

Gaussian template charges

 0 1
C   -4.029961   -0.222968   -0.637878
C   -3.136886    0.870231   -0.284632
C   -1.781769    0.687625   -0.151032
C   -1.149846   -0.580228   -0.347221
C   -2.012296   -1.667837   -0.695728
C   -3.368069   -1.508924   -0.834342
O   -5.274563   -0.077005   -0.765218
C    0.256165   -0.697863   -0.192646
C    1.064485   -1.811102   -0.331996
C    2.481996   -1.733977   -0.134428
O    3.166892   -0.757580    0.169148
S    3.320367   -3.373700   -0.394144
C    5.038440   -2.879696   -0.033601
H   -3.590100    1.847333   -0.129109
H   -1.149168    1.535935    0.115442
H   -1.576287   -2.653064   -0.855455
H   -4.005328   -2.350419   -1.099982
H    0.778758    0.221881    0.075172
H    0.652125   -2.781444   -0.596175
H    5.671359   -3.748593   -0.238940
H    5.148331   -2.582362    1.012602
H    5.336346   -2.043284   -0.670418

 -6.4774  -2.0709  -2.7194    0.10

--link1--
%nproc=4
%mem=20000MB
#P b3lyp/STO-3G TD(NStates=6) SCFcyc=500 charge NoSymm

Gaussian template charges

 0 1
C   -4.029961   -0.222968   -0.637878
C   -3.136886    0.870231   -0.284632
C   -1.781769    0.687625   -0.151032
C   -1.149846   -0.580228   -0.347221
C   -2.012296   -1.667837   -0.695728
C   -3.368069   -1.508924   -0.834342
O   -5.274563   -0.077005   -0.765218
C    0.256165   -0.697863   -0.192646
C    1.064485   -1.811102   -0.331996
C    2.481996   -1.733977   -0.134428
O    3.166892   -0.757580    0.169148
S    3.320367   -3.373700   -0.394144
C    5.038440   -2.879696   -0.033601
H   -3.590100    1.847333   -0.129109
H   -1.149168    1.535935    0.115442
H   -1.576287   -2.653064   -0.855455
H   -4.005328   -2.350419   -1.099982
H    0.778758    0.221881    0.075172
H    0.652125   -2.781444   -0.596175
H    5.671359   -3.748593   -0.238940
H    5.148331   -2.582362    1.012602
H    5.336346   -2.043284   -0.670418

 -6.0039   0.4582  -3.6675    0.10

--link1--
%nproc=4
%mem=20000MB
#P b3lyp/STO-3G TD(NStates=6) SCFcyc=500 charge NoSymm

Gaussian template charges

 0 1
C   -4.029961   -0.222968   -0.637878
C   -3.136886    0.870231   -0.284632
C   -1.781769    0.687625   -0.151032
C   -1.149846   -0.580228   -0.347221
C   -2.012296   -1.667837   -0.695728
C   -3.368069   -1.508924   -0.834342
O   -5.274563   -0.077005   -0.765218
C    0.256165   -0.697863   -0.192646
C    1.064485   -1.811102   -0.331996
C    2.481996   -1.733977   -0.134428
O    3.166892   -0.757580    0.169148
S    3.320367   -3.373700   -0.394144
C    5.038440   -2.879696   -0.033601
H   -3.590100    1.847333   -0.129109
H   -1.149168    1.535935    0.115442
H   -1.576287   -2.653064   -0.855455
H   -4.005328   -2.350419   -1.099982
H    0.778758    0.221881    0.075172
H    0.652125   -2.781444   -0.596175
H    5.671359   -3.748593   -0.238940
H    5.148331   -2.582362    1.012602
H    5.336346   -2.043284   -0.670418

 -6.0060  -0.6113  -3.6671    0.10

--link1--
%nproc=4
%mem=20000MB
#P b3lyp/STO-3G TD(NStates=6) SCFcyc=500 charge NoSymm

Gaussian template charges

 0 1
C   -4.029961   -0.222968   -0.637878
C   -3.136886    0.870231   -0.284632
C   -1.781769    0.687625   -0.151032
C   -1.149846   -0.580228   -0.347221
C   -2.012296   -1.667837   -0.695728
C   -3.368069   -1.508924   -0.834342
O   -5.274563   -0.077005   -0.765218
C    0.256165   -0.697863   -0.192646
C    1.064485   -1.811102   -0.331996
C    2.481996   -1.733977   -0.134428
O    3.166892   -0.757580    0.169148
S    3.320367   -3.373700   -0.394144
C    5.038440   -2.879696   -0.033601
H   -3.590100    1.847333   -0.129109
H   -1.149168    1.535935    0.115442
H   -1.576287   -2.653064   -0.855455
H   -4.005328   -2.350419   -1.099982
H    0.778758    0.221881    0.075172
H    0.652125   -2.781444   -0.596175
H    5.671359   -3.748593   -0.238940
H    5.148331   -2.582362    1.012602
H    5.336346   -2.043284   -0.670418

 -6.6594  -0.8999   1.8129    0.10

--link1--
%nproc=4
%mem=20000MB
#P b3lyp/STO-3G TD(NStates=6) SCFcyc=500 charge NoSymm

Gaussian template charges

 0 1
C   -4.029961   -0.222968   -0.637878
C   -3.136886    0.870231   -0.284632
C   -1.781769    0.687625   -0.151032
C   -1.149846   -0.580228   -0.347221
C   -2.012296   -1.667837   -0.695728
C   -3.368069   -1.508924   -0.834342
O   -5.274563   -0.077005   -0.765218
C    0.256165   -0.697863   -0.192646
C    1.064485   -1.811102   -0.331996
C    2.481996   -1.733977   -0.134428
O    3.166892   -0.757580    0.169148
S    3.320367   -3.373700   -0.394144
C    5.038440   -2.879696   -0.033601
H   -3.590100    1.847333   -0.129109
H   -1.149168    1.535935    0.115442
H   -1.576287   -2.653064   -0.855455
H   -4.005328   -2.350419   -1.099982
H    0.778758    0.221881    0.075172
H    0.652125   -2.781444   -0.596175
H    5.671359   -3.748593   -0.238940
H    5.148331   -2.582362    1.012602
H    5.336346   -2.043284   -0.670418

 -7.7760  -0.1331   0.9614    0.10

--link1--
%nproc=4
%mem=20000MB
#P b3lyp/STO-3G TD(NStates=6) SCFcyc=500 charge NoSymm

Gaussian template charges

 0 1
C   -4.029961   -0.222968   -0.637878
C   -3.136886    0.870231   -0.284632
C   -1.781769    0.687625   -0.151032
C   -1.149846   -0.580228   -0.347221
C   -2.012296   -1.667837   -0.695728
C   -3.368069   -1.508924   -0.834342
O   -5.274563   -0.077005   -0.765218
C    0.256165   -0.697863   -0.192646
C    1.064485   -1.811102   -0.331996
C    2.481996   -1.733977   -0.134428
O    3.166892   -0.757580    0.169148
S    3.320367   -3.373700   -0.394144
C    5.038440   -2.879696   -0.033601
H   -3.590100    1.847333   -0.129109
H   -1.149168    1.535935    0.115442
H   -1.576287   -2.653064   -0.855455
H   -4.005328   -2.350419   -1.099982
H    0.778758    0.221881    0.075172
H    0.652125   -2.781444   -0.596175
H    5.671359   -3.748593   -0.238940
H    5.148331   -2.582362    1.012602
H    5.336346   -2.043284   -0.670418

 -6.9876   2.4309  -0.6341    0.10

