%nproc=4
%mem=20000MB
#P b3lyp/STO-3G TD(NStates=6) SCFcyc=500 charge NoSymm

Gaussian template charges

 0 1
C   -4.029961   -0.222968   -0.637878
C   -3.136886    0.870231   -0.284632
C   -1.781769    0.687625   -0.151032
C   -1.149846   -0.580228   -0.347221
C   -2.012296   -1.667837   -0.695728
C   -3.368069   -1.508924   -0.834342
O   -5.274563   -0.077005   -0.765218
C    0.256165   -0.697863   -0.192646
C    1.064485   -1.811102   -0.331996
C    2.481996   -1.733977   -0.134428
O    3.166892   -0.757580    0.169148
S    3.320367   -3.373700   -0.394144
C    5.038440   -2.879696   -0.033601
H   -3.590100    1.847333   -0.129109
H   -1.149168    1.535935    0.115442
H   -1.576287   -2.653064   -0.855455
H   -4.005328   -2.350419   -1.099982
H    0.778758    0.221881    0.075172
H    0.652125   -2.781444   -0.596175
H    5.671359   -3.748593   -0.238940
H    5.148331   -2.582362    1.012602
H    5.336346   -2.043284   -0.670418

  0.4860  -3.9519  -2.9093    0.10

--link1--
%nproc=4
%mem=20000MB
#P b3lyp/STO-3G TD(NStates=6) SCFcyc=500 charge NoSymm

Gaussian template charges

 0 1
C   -4.029961   -0.222968   -0.637878
C   -3.136886    0.870231   -0.284632
C   -1.781769    0.687625   -0.151032
C   -1.149846   -0.580228   -0.347221
C   -2.012296   -1.667837   -0.695728
C   -3.368069   -1.508924   -0.834342
O   -5.274563   -0.077005   -0.765218
C    0.256165   -0.697863   -0.192646
C    1.064485   -1.811102   -0.331996
C    2.481996   -1.733977   -0.134428
O    3.166892   -0.757580    0.169148
S    3.320367   -3.373700   -0.394144
C    5.038440   -2.879696   -0.033601
H   -3.590100    1.847333   -0.129109
H   -1.149168    1.535935    0.115442
H   -1.576287   -2.653064   -0.855455
H   -4.005328   -2.350419   -1.099982
H    0.778758    0.221881    0.075172
H    0.652125   -2.781444   -0.596175
H    5.671359   -3.748593   -0.238940
H    5.148331   -2.582362    1.012602
H    5.336346   -2.043284   -0.670418

  0.5472  -3.1534  -3.4127    0.10

--link1--
%nproc=4
%mem=20000MB
#P b3lyp/STO-3G TD(NStates=6) SCFcyc=500 charge NoSymm

Gaussian template charges

 0 1
C   -4.029961   -0.222968   -0.637878
C   -3.136886    0.870231   -0.284632
C   -1.781769    0.687625   -0.151032
C   -1.149846   -0.580228   -0.347221
C   -2.012296   -1.667837   -0.695728
C   -3.368069   -1.508924   -0.834342
O   -5.274563   -0.077005   -0.765218
C    0.256165   -0.697863   -0.192646
C    1.064485   -1.811102   -0.331996
C    2.481996   -1.733977   -0.134428
O    3.166892   -0.757580    0.169148
S    3.320367   -3.373700   -0.394144
C    5.038440   -2.879696   -0.033601
H   -3.590100    1.847333   -0.129109
H   -1.149168    1.535935    0.115442
H   -1.576287   -2.653064   -0.855455
H   -4.005328   -2.350419   -1.099982
H    0.778758    0.221881    0.075172
H    0.652125   -2.781444   -0.596175
H    5.671359   -3.748593   -0.238940
H    5.148331   -2.582362    1.012602
H    5.336346   -2.043284   -0.670418

 -0.1961  -3.9097   2.0274    0.10

--link1--
%nproc=4
%mem=20000MB
#P b3lyp/STO-3G TD(NStates=6) SCFcyc=500 charge NoSymm

Gaussian template charges

 0 1
C   -4.029961   -0.222968   -0.637878
C   -3.136886    0.870231   -0.284632
C   -1.781769    0.687625   -0.151032
C   -1.149846   -0.580228   -0.347221
C   -2.012296   -1.667837   -0.695728
C   -3.368069   -1.508924   -0.834342
O   -5.274563   -0.077005   -0.765218
C    0.256165   -0.697863   -0.192646
C    1.064485   -1.811102   -0.331996
C    2.481996   -1.733977   -0.134428
O    3.166892   -0.757580    0.169148
S    3.320367   -3.373700   -0.394144
C    5.038440   -2.879696   -0.033601
H   -3.590100    1.847333   -0.129109
H   -1.149168    1.535935    0.115442
H   -1.576287   -2.653064   -0.855455
H   -4.005328   -2.350419   -1.099982
H    0.778758    0.221881    0.075172
H    0.652125   -2.781444   -0.596175
H    5.671359   -3.748593   -0.238940
H    5.148331   -2.582362    1.012602
H    5.336346   -2.043284   -0.670418

  0.2302  -3.6196   2.4236    0.10

--link1--
%nproc=4
%mem=20000MB
#P b3lyp/STO-3G TD(NStates=6) SCFcyc=500 charge NoSymm

Gaussian template charges

 0 1
C   -4.029961   -0.222968   -0.637878
C   -3.136886    0.870231   -0.284632
C   -1.781769    0.687625   -0.151032
C   -1.149846   -0.580228   -0.347221
C   -2.012296   -1.667837   -0.695728
C   -3.368069   -1.508924   -0.834342
O   -5.274563   -0.077005   -0.765218
C    0.256165   -0.697863   -0.192646
C    1.064485   -1.811102   -0.331996
C    2.481996   -1.733977   -0.134428
O    3.166892   -0.757580    0.169148
S    3.320367   -3.373700   -0.394144
C    5.038440   -2.879696   -0.033601
H   -3.590100    1.847333   -0.129109
H   -1.149168    1.535935    0.115442
H   -1.576287   -2.653064   -0.855455
H   -4.005328   -2.350419   -1.099982
H    0.778758    0.221881    0.075172
H    0.652125   -2.781444   -0.596175
H    5.671359   -3.748593   -0.238940
H    5.148331   -2.582362    1.012602
H    5.336346   -2.043284   -0.670418

  0.7692  -3.3828   2.6684    0.10

--link1--
%nproc=4
%mem=20000MB
#P b3lyp/STO-3G TD(NStates=6) SCFcyc=500 charge NoSymm

Gaussian template charges

 0 1
C   -4.029961   -0.222968   -0.637878
C   -3.136886    0.870231   -0.284632
C   -1.781769    0.687625   -0.151032
C   -1.149846   -0.580228   -0.347221
C   -2.012296   -1.667837   -0.695728
C   -3.368069   -1.508924   -0.834342
O   -5.274563   -0.077005   -0.765218
C    0.256165   -0.697863   -0.192646
C    1.064485   -1.811102   -0.331996
C    2.481996   -1.733977   -0.134428
O    3.166892   -0.757580    0.169148
S    3.320367   -3.373700   -0.394144
C    5.038440   -2.879696   -0.033601
H   -3.590100    1.847333   -0.129109
H   -1.149168    1.535935    0.115442
H   -1.576287   -2.653064   -0.855455
H   -4.005328   -2.350419   -1.099982
H    0.778758    0.221881    0.075172
H    0.652125   -2.781444   -0.596175
H    5.671359   -3.748593   -0.238940
H    5.148331   -2.582362    1.012602
H    5.336346   -2.043284   -0.670418

  0.1865  -4.9980   0.4634    0.10

--link1--
%nproc=4
%mem=20000MB
#P b3lyp/STO-3G TD(NStates=6) SCFcyc=500 charge NoSymm

Gaussian template charges

 0 1
C   -4.029961   -0.222968   -0.637878
C   -3.136886    0.870231   -0.284632
C   -1.781769    0.687625   -0.151032
C   -1.149846   -0.580228   -0.347221
C   -2.012296   -1.667837   -0.695728
C   -3.368069   -1.508924   -0.834342
O   -5.274563   -0.077005   -0.765218
C    0.256165   -0.697863   -0.192646
C    1.064485   -1.811102   -0.331996
C    2.481996   -1.733977   -0.134428
O    3.166892   -0.757580    0.169148
S    3.320367   -3.373700   -0.394144
C    5.038440   -2.879696   -0.033601
H   -3.590100    1.847333   -0.129109
H   -1.149168    1.535935    0.115442
H   -1.576287   -2.653064   -0.855455
H   -4.005328   -2.350419   -1.099982
H    0.778758    0.221881    0.075172
H    0.652125   -2.781444   -0.596175
H    5.671359   -3.748593   -0.238940
H    5.148331   -2.582362    1.012602
H    5.336346   -2.043284   -0.670418

 -0.5772  -4.6965   0.4024    0.10

--link1--
%nproc=4
%mem=20000MB
#P b3lyp/STO-3G TD(NStates=6) SCFcyc=500 charge NoSymm

Gaussian template charges

 0 1
C   -4.029961   -0.222968   -0.637878
C   -3.136886    0.870231   -0.284632
C   -1.781769    0.687625   -0.151032
C   -1.149846   -0.580228   -0.347221
C   -2.012296   -1.667837   -0.695728
C   -3.368069   -1.508924   -0.834342
O   -5.274563   -0.077005   -0.765218
C    0.256165   -0.697863   -0.192646
C    1.064485   -1.811102   -0.331996
C    2.481996   -1.733977   -0.134428
O    3.166892   -0.757580    0.169148
S    3.320367   -3.373700   -0.394144
C    5.038440   -2.879696   -0.033601
H   -3.590100    1.847333   -0.129109
H   -1.149168    1.535935    0.115442
H   -1.576287   -2.653064   -0.855455
H   -4.005328   -2.350419   -1.099982
H    0.778758    0.221881    0.075172
H    0.652125   -2.781444   -0.596175
H    5.671359   -3.748593   -0.238940
H    5.148331   -2.582362    1.012602
H    5.336346   -2.043284   -0.670418

  1.3162  -0.6808  -3.5287    0.10

--link1--
%nproc=4
%mem=20000MB
#P b3lyp/STO-3G TD(NStates=6) SCFcyc=500 charge NoSymm

Gaussian template charges

 0 1
C   -4.029961   -0.222968   -0.637878
C   -3.136886    0.870231   -0.284632
C   -1.781769    0.687625   -0.151032
C   -1.149846   -0.580228   -0.347221
C   -2.012296   -1.667837   -0.695728
C   -3.368069   -1.508924   -0.834342
O   -5.274563   -0.077005   -0.765218
C    0.256165   -0.697863   -0.192646
C    1.064485   -1.811102   -0.331996
C    2.481996   -1.733977   -0.134428
O    3.166892   -0.757580    0.169148
S    3.320367   -3.373700   -0.394144
C    5.038440   -2.879696   -0.033601
H   -3.590100    1.847333   -0.129109
H   -1.149168    1.535935    0.115442
H   -1.576287   -2.653064   -0.855455
H   -4.005328   -2.350419   -1.099982
H    0.778758    0.221881    0.075172
H    0.652125   -2.781444   -0.596175
H    5.671359   -3.748593   -0.238940
H    5.148331   -2.582362    1.012602
H    5.336346   -2.043284   -0.670418

  0.1993  -1.2121  -3.5651    0.10

--link1--
%nproc=4
%mem=20000MB
#P b3lyp/STO-3G TD(NStates=6) SCFcyc=500 charge NoSymm

Gaussian template charges

 0 1
C   -4.029961   -0.222968   -0.637878
C   -3.136886    0.870231   -0.284632
C   -1.781769    0.687625   -0.151032
C   -1.149846   -0.580228   -0.347221
C   -2.012296   -1.667837   -0.695728
C   -3.368069   -1.508924   -0.834342
O   -5.274563   -0.077005   -0.765218
C    0.256165   -0.697863   -0.192646
C    1.064485   -1.811102   -0.331996
C    2.481996   -1.733977   -0.134428
O    3.166892   -0.757580    0.169148
S    3.320367   -3.373700   -0.394144
C    5.038440   -2.879696   -0.033601
H   -3.590100    1.847333   -0.129109
H   -1.149168    1.535935    0.115442
H   -1.576287   -2.653064   -0.855455
H   -4.005328   -2.350419   -1.099982
H    0.778758    0.221881    0.075172
H    0.652125   -2.781444   -0.596175
H    5.671359   -3.748593   -0.238940
H    5.148331   -2.582362    1.012602
H    5.336346   -2.043284   -0.670418

  0.2040  -2.3981  -3.5685    0.10

--link1--
%nproc=4
%mem=20000MB
#P b3lyp/STO-3G TD(NStates=6) SCFcyc=500 charge NoSymm

Gaussian template charges

 0 1
C   -4.029961   -0.222968   -0.637878
C   -3.136886    0.870231   -0.284632
C   -1.781769    0.687625   -0.151032
C   -1.149846   -0.580228   -0.347221
C   -2.012296   -1.667837   -0.695728
C   -3.368069   -1.508924   -0.834342
O   -5.274563   -0.077005   -0.765218
C    0.256165   -0.697863   -0.192646
C    1.064485   -1.811102   -0.331996
C    2.481996   -1.733977   -0.134428
O    3.166892   -0.757580    0.169148
S    3.320367   -3.373700   -0.394144
C    5.038440   -2.879696   -0.033601
H   -3.590100    1.847333   -0.129109
H   -1.149168    1.535935    0.115442
H   -1.576287   -2.653064   -0.855455
H   -4.005328   -2.350419   -1.099982
H    0.778758    0.221881    0.075172
H    0.652125   -2.781444   -0.596175
H    5.671359   -3.748593   -0.238940
H    5.148331   -2.582362    1.012602
H    5.336346   -2.043284   -0.670418

 -0.2495  -3.6015  -2.9064    0.10

--link1--
%nproc=4
%mem=20000MB
#P b3lyp/STO-3G TD(NStates=6) SCFcyc=500 charge NoSymm

Gaussian template charges

 0 1
C   -4.029961   -0.222968   -0.637878
C   -3.136886    0.870231   -0.284632
C   -1.781769    0.687625   -0.151032
C   -1.149846   -0.580228   -0.347221
C   -2.012296   -1.667837   -0.695728
C   -3.368069   -1.508924   -0.834342
O   -5.274563   -0.077005   -0.765218
C    0.256165   -0.697863   -0.192646
C    1.064485   -1.811102   -0.331996
C    2.481996   -1.733977   -0.134428
O    3.166892   -0.757580    0.169148
S    3.320367   -3.373700   -0.394144
C    5.038440   -2.879696   -0.033601
H   -3.590100    1.847333   -0.129109
H   -1.149168    1.535935    0.115442
H   -1.576287   -2.653064   -0.855455
H   -4.005328   -2.350419   -1.099982
H    0.778758    0.221881    0.075172
H    0.652125   -2.781444   -0.596175
H    5.671359   -3.748593   -0.238940
H    5.148331   -2.582362    1.012602
H    5.336346   -2.043284   -0.670418

  1.5583  -2.6022  -3.6016    0.10

